version 2
run SimpleRREQ-3-20161207-12:08:02-4032
attr configname SimpleRREQ
attr datetime 20161207-12:08:02
attr experiment SimpleRREQ
attr inifile omnetpp.ini
attr iterationvars "$0=\"./movements/RandomWaypoint—0-100-0.5.movements\""
attr iterationvars2 "$0=\"./movements/RandomWaypoint—0-100-0.5.movements\", $repetition=3"
attr measurement "$0=\"./movements/RandomWaypoint—0-100-0.5.movements\""
attr network SimpleRREQ
attr processid 4032
attr repetition 3
attr replication #3
attr resultdir results
attr runnumber 3
attr seedset 3
param **.hasStatus true
param **.host[*].mobility.nodeId -1
param **.host[*].mobility.traceFile "${\"./movements/RandomWaypoint—0-100-0.5.movements\"}"
param **.host[*].mobilityType "\"BonnMotionMobility\""
param **.host[*].numPingApps 1
param **.host[*].pingApp[0].destAddr "\"host[0](ipv4)\""
param **.host[*].pingApp[0].printPing true
param **.host[*].pingApp[0].startTime uniform(1s,5s)
param **.mobility.constraintAreaMaxX 600m
param **.mobility.constraintAreaMaxY 600m
param **.mobility.constraintAreaMaxZ 0m
param **.mobility.constraintAreaMinX 0m
param **.mobility.constraintAreaMinY 0m
param **.mobility.constraintAreaMinZ 0m
param **.trickle.Imax 20s
param **.trickle.Imin 10s
param **.trickle.MaxMessages 5
param **.wlan[*].bitrate 2Mbps
param **.wlan[*].mac.address "\"auto\""
param **.wlan[*].mac.cwMinData 7
param **.wlan[*].mac.cwMinMulticast 31
param **.wlan[*].mac.headerLength 20B
param **.wlan[*].mac.maxQueueSize 14
param **.wlan[*].mac.retryLimit 7
param **.wlan[*].mac.rtsThresholdBytes 3000B
param **.wlan[*].mgmt.frameCapacity 10
param **.wlan[*].radio.receiver.ignoreInterference true
param **.wlan[*].radio.transmitter.communicationRange 250m
param **.wlan[*].radio.transmitter.detectionRange 0m
param **.wlan[*].radio.transmitter.headerBitLength 0b
param **.wlan[*].radio.transmitter.interferenceRange 0m
param **.wlan[*].radioType "\"IdealRadio\""
param **.wlan[*].typename "\"IdealWirelessNic\""
param *.host0.numPingApps 1
param *.host0.pingApp[0].printPing true
param *.host0.pingApp[0].startTime uniform(1s,5s)
param *.numHosts 3

scalar SimpleRREQ 	hackForCreateResultsFolder 	0
scalar SimpleRREQ.radioMedium.propagation 	"Arrival computation count" 	10496724
scalar SimpleRREQ.radioMedium 	"transmission count" 	361956
scalar SimpleRREQ.radioMedium 	"radio frame send count" 	10496724
scalar SimpleRREQ.radioMedium 	"reception computation count" 	10495854
scalar SimpleRREQ.radioMedium 	"interference computation count" 	19937907
scalar SimpleRREQ.radioMedium 	"reception decision computation count" 	2654131
scalar SimpleRREQ.radioMedium 	"listening decision computation count" 	6787922
scalar SimpleRREQ.radioMedium 	"reception cache hit" 	91.235220533679
attr unit  %
scalar SimpleRREQ.radioMedium 	"interference cache hit" 	66.666666666667
attr unit  %
scalar SimpleRREQ.radioMedium 	"noise cache hit" 	0
attr unit  %
scalar SimpleRREQ.radioMedium 	"snir cache hit" 	50
attr unit  %
scalar SimpleRREQ.radioMedium 	"reception decision cache hit" 	50
attr unit  %
scalar SimpleRREQ.radioMedium 	"reception result cache hit" 	0
attr unit  %
scalar SimpleRREQ.host[0].networkLayer.arp 	sentReply:count 	0
attr title  "ARP replies sent, count"
scalar SimpleRREQ.host[0].networkLayer.arp 	sentReq:count 	0
attr title  "ARP request sent, count"
scalar SimpleRREQ.host[0].networkLayer.arp 	failedARPResolution:count 	0
attr title  "ARP failed resolutions, count"
scalar SimpleRREQ.host[0].networkLayer.arp 	completedARPResolution:count 	0
attr title  "ARP completed resolutions, count"
scalar SimpleRREQ.host[0].networkLayer.arp 	initiatedARPResolution:count 	0
attr title  "ARP initiated resolutions, count"
scalar SimpleRREQ.host[0].lo0.lo 	droppedPkBitError:count 	0
attr interpolationmode  none
attr source  dropPkBitError
attr title  "packets dropped/bit error, count"
scalar SimpleRREQ.host[0].lo0.lo 	droppedPkBitError:sum(packetBytes) 	0
attr interpolationmode  none
attr source  dropPkBitError
attr title  "packets dropped/bit error, sum(packetBytes)"
scalar SimpleRREQ.host[0].lo0.lo 	rcvdPkFromHL:count 	2398
attr interpolationmode  none
attr source  packetReceivedFromUpper
attr title  "packets received from higher layer, count"
scalar SimpleRREQ.host[0].lo0.lo 	rcvdPkFromHL:sum(packetBytes) 	201432
attr interpolationmode  none
attr source  packetReceivedFromUpper
attr title  "packets received from higher layer, sum(packetBytes)"
scalar SimpleRREQ.host[0].lo0.lo 	passedUpPk:count 	2398
attr interpolationmode  none
attr source  packetSentToUpper
attr title  "packets passed to higher layer, count"
scalar SimpleRREQ.host[0].lo0.lo 	passedUpPk:sum(packetBytes) 	201432
attr interpolationmode  none
attr source  packetSentToUpper
attr title  "packets passed to higher layer, sum(packetBytes)"
scalar SimpleRREQ.host[0].wlan[0].queue 	queueLength:max 	2
attr interpolationmode  sample-hold
attr title  "queue length, max"
scalar SimpleRREQ.host[0].wlan[0].queue 	queueLength:timeavg 	6.9194665835833e-005
attr interpolationmode  sample-hold
attr title  "queue length, timeavg"
statistic SimpleRREQ.host[0].wlan[0].queue 	queueingTime:histogram
field count 10027
field mean 8.2810011970679e-006
field stddev 4.1611097483421e-005
field sum 0.083033599003
field sqrsum 1.8047454239766e-005
field min 0
field max 0.000383981468
attr interpolationmode  none
attr title  "queueing time, histogram"
bin	-INF	0
bin	-9.59669275e-005	0
bin	-8.3171337166667e-005	0
bin	-7.0375746833333e-005	0
bin	-5.75801565e-005	0
bin	-4.4784566166667e-005	0
bin	-3.1988975833333e-005	0
bin	-1.91933855e-005	0
bin	-6.3977951666667e-006	9623
bin	6.3977951666667e-006	0
bin	1.91933855e-005	0
bin	3.1988975833333e-005	0
bin	4.4784566166667e-005	0
bin	5.75801565e-005	0
bin	7.0375746833333e-005	0
bin	8.3171337166667e-005	0
bin	9.59669275e-005	0
bin	0.00010876251783333	0
bin	0.00012155810816667	0
bin	0.0001343536985	0
bin	0.00014714928883333	0
bin	0.00015994487916667	0
bin	0.0001727404695	0
bin	0.00018553605983333	375
bin	0.00019833165016667	0
bin	0.0002111272405	0
bin	0.00022392283083333	0
bin	0.00023671842116667	0
bin	0.0002495140115	0
bin	0.00026230960183333	0
bin	0.00027510519216667	0
bin	0.0002879007825	29
scalar SimpleRREQ.host[0].wlan[0].queue 	dropPk:count 	0
attr interpolationmode  none
attr source  dropPkByQueue
attr title  "dropped packets, count"
scalar SimpleRREQ.host[0].wlan[0].queue 	dropPk:sum(packetBytes) 	0
attr interpolationmode  none
attr source  dropPkByQueue
attr title  "dropped packets, sum(packetBytes)"
scalar SimpleRREQ.host[0].wlan[0].queue 	rcvdPk:count 	10027
attr interpolationmode  none
attr title  "received packets, count"
scalar SimpleRREQ.host[0].wlan[0].queue 	rcvdPk:sum(packetBytes) 	280756
attr interpolationmode  none
attr title  "received packets, sum(packetBytes)"
scalar SimpleRREQ.host[0].wlan[0].mac 	droppedPkNotForUs:count 	0
attr interpolationmode  none
attr source  dropPkNotForUs
attr title  "packets dropped/not for us, count"
scalar SimpleRREQ.host[0].wlan[0].mac 	droppedPkNotForUs:sum(packetBytes) 	0
attr interpolationmode  none
attr source  dropPkNotForUs
attr title  "packets dropped/not for us, sum(packetBytes)"
scalar SimpleRREQ.host[0].wlan[0].mac 	rcvdPkFromHL:count 	10027
attr interpolationmode  none
attr source  packetReceivedFromUpper
attr title  "packets received from higher layer, count"
scalar SimpleRREQ.host[0].wlan[0].mac 	rcvdPkFromHL:sum(packetBytes) 	280756
attr interpolationmode  none
attr source  packetReceivedFromUpper
attr title  "packets received from higher layer, sum(packetBytes)"
scalar SimpleRREQ.host[0].wlan[0].mac 	passedUpPk:count 	68527
attr interpolationmode  none
attr source  packetSentToUpper
attr title  "packets passed to higher layer, count"
scalar SimpleRREQ.host[0].wlan[0].mac 	passedUpPk:sum(packetBytes) 	1918756
attr interpolationmode  none
attr source  packetSentToUpper
attr title  "packets passed to higher layer, sum(packetBytes)"
scalar SimpleRREQ.host[0].wlan[0].mac 	rcvdPkFromLL:count 	68527
attr interpolationmode  none
attr source  packetReceivedFromLower
attr title  "packets received from lower layer, count"
scalar SimpleRREQ.host[0].wlan[0].mac 	rcvdPkFromLL:sum(packetBytes) 	3289296
attr interpolationmode  none
attr source  packetReceivedFromLower
attr title  "packets received from lower layer, sum(packetBytes)"
scalar SimpleRREQ.host[0].wlan[0].mac 	sentDownPk:count 	10027
attr interpolationmode  none
attr source  packetSentToLower
attr title  "packets sent to lower layer, count"
scalar SimpleRREQ.host[0].wlan[0].mac 	sentDownPk:sum(packetBytes) 	481296
attr interpolationmode  none
attr source  packetSentToLower
attr title  "packets sent to lower layer, sum(packetBytes)"
statistic SimpleRREQ.host[0].wlan[0].radio 	symbolErrorRate:histogram
field count 68527
field mean 0.42313248792447
field stddev 0.49405965997357
field sum 28996
field sqrsum 28996
field min 0
field max 1
attr source  symbolErrorRate
attr title  "Symbol error rate, histogram"
bin	-INF	0
bin	-1	0
bin	0	39531
bin	1	28996
bin	2	0
statistic SimpleRREQ.host[0].wlan[0].radio 	bitErrorRate:histogram
field count 68527
field mean 0.42313248792447
field stddev 0.49405965997357
field sum 28996
field sqrsum 28996
field min 0
field max 1
attr source  bitErrorRate
attr title  "Bit error rate, histogram"
bin	-INF	0
bin	-1	0
bin	0	39531
bin	1	28996
bin	2	0
statistic SimpleRREQ.host[0].wlan[0].radio 	packetErrorRate:histogram
field count 68527
field mean 0.42313248792447
field stddev 0.49405965997357
field sum 28996
field sqrsum 28996
field min 0
field max 1
attr source  packetErrorRate
attr title  "Packet error rate, histogram"
bin	-INF	0
bin	-1	0
bin	0	39531
bin	1	28996
bin	2	0
statistic SimpleRREQ.host[0].wlan[0].radio 	minSNIR:histogram
field count 68527
field mean nan
field stddev nan
field sum nan
field sqrsum nan
field min nan
field max nan
attr source  minSNIR
attr title  "Min SNIR, histogram"
bin	-INF	68527
bin	nan	0
bin	nan	0
bin	nan	0
bin	nan	0
bin	nan	0
bin	nan	0
bin	nan	0
bin	nan	0
bin	nan	0
bin	nan	0
bin	nan	0
bin	nan	0
bin	nan	0
bin	nan	0
bin	nan	0
bin	nan	0
bin	nan	0
bin	nan	0
bin	nan	0
bin	nan	0
bin	nan	0
bin	nan	0
bin	nan	0
bin	nan	0
bin	nan	0
bin	nan	0
bin	nan	0
bin	nan	0
bin	nan	0
bin	nan	0
bin	nan	0
scalar SimpleRREQ.host[0].wlan[0].radio 	transmissionState:count 	20054
attr interpolationmode  sample-hold
attr source  transmissionStateChanged
attr title  "Radio transmission state, count"
scalar SimpleRREQ.host[0].wlan[0].radio 	receptionState:count 	137056
attr interpolationmode  sample-hold
attr source  receptionStateChanged
attr title  "Radio reception state, count"
scalar SimpleRREQ.host[0].wlan[0].radio 	radioMode:count 	2
attr interpolationmode  sample-hold
attr source  radioModeChanged
attr title  "Radio mode, count"
scalar SimpleRREQ.host[0].pingApp[0] 	"Pings sent" 	1199
scalar SimpleRREQ.host[0].pingApp[0] 	"ping loss rate (%)" 	0
scalar SimpleRREQ.host[0].pingApp[0] 	"ping out-of-order rate (%)" 	0
scalar SimpleRREQ.host[0].pingApp[0] 	numOutOfOrderArrivals:last 	nan
attr interpolationmode  none
attr title  "ping out-of-order arrivals, last"
scalar SimpleRREQ.host[0].pingApp[0] 	pingRxSeq:count 	1199
attr interpolationmode  none
attr title  "ping rx seq, count"
scalar SimpleRREQ.host[0].pingApp[0] 	pingTxSeq:count 	1199
attr interpolationmode  none
attr title  "ping tx seq, count"
scalar SimpleRREQ.host[0].pingApp[0] 	numLost:last 	nan
attr interpolationmode  none
attr title  "pings lost, last"
statistic SimpleRREQ.host[0].pingApp[0] 	rtt:histogram
field count 1199
field mean 0.29964970809008
field stddev 0.044882083286831
field sum 359.28
field sqrsum 110.0714
field min 0.2
field max 0.4
attr interpolationmode  none
attr title  "ping round-trip time, histogram"
attr unit  s
bin	-INF	0
bin	0.125	0
bin	0.13633333333333	0
bin	0.14766666666667	0
bin	0.159	0
bin	0.17033333333333	0
bin	0.18166666666667	0
bin	0.193	8
bin	0.20433333333333	21
bin	0.21566666666667	31
bin	0.227	46
bin	0.23833333333333	42
bin	0.24966666666667	131
bin	0.261	85
bin	0.27233333333333	110
bin	0.28366666666667	79
bin	0.295	106
bin	0.30633333333333	83
bin	0.31766666666667	101
bin	0.329	152
bin	0.34033333333333	51
bin	0.35166666666667	56
bin	0.363	36
bin	0.37433333333333	33
bin	0.38566666666667	16
bin	0.397	12
bin	0.40833333333333	0
bin	0.41966666666667	0
bin	0.431	0
bin	0.44233333333333	0
bin	0.45366666666667	0
bin	0.465	0
scalar SimpleRREQ.host[0].epf 	dataFwd:count 	441
attr interpolationmode  none
attr source  dataFwd
attr title  "Forward Data message, count"
scalar SimpleRREQ.host[0].epf 	dataDest:count 	309
attr interpolationmode  none
attr source  dataDest
attr title  "Received Data message on Destination, count"
scalar SimpleRREQ.host[0].epf 	dataRec:count 	7442
attr interpolationmode  none
attr source  dataRec
attr title  "Received Data message, count"
scalar SimpleRREQ.host[0].epf 	dataSent:count 	713
attr interpolationmode  none
attr source  dataSent
attr title  "Sent Data message, count"
scalar SimpleRREQ.host[0].epf 	destResp:count 	274
attr interpolationmode  none
attr source  destResp
attr title  "Response from destination, count"
scalar SimpleRREQ.host[0].epf 	destEnq:count 	274
attr interpolationmode  none
attr source  destEnq
attr title  "Enquire to Destination, count"
scalar SimpleRREQ.host[0].epf 	respNOkRec:count 	2631
attr interpolationmode  none
attr source  respNOkRec
attr title  "Received Not Ok Response message, count"
scalar SimpleRREQ.host[0].epf 	respNOkSent:count 	1858
attr interpolationmode  none
attr source  respNOkSent
attr title  "Sent Not Ok Response message, count"
scalar SimpleRREQ.host[0].epf 	respOkRec:count 	713
attr interpolationmode  none
attr source  respOkRec
attr title  "Received Ok Response message, count"
scalar SimpleRREQ.host[0].epf 	respOkSent:count 	1790
attr interpolationmode  none
attr source  respOkSent
attr title  "Sent Ok Response message, count"
scalar SimpleRREQ.host[0].epf 	respRec:count 	52450
attr interpolationmode  none
attr source  respRec
attr title  "Received Response message, count"
scalar SimpleRREQ.host[0].epf 	respSent:count 	0
attr interpolationmode  none
attr source  respSent
attr title  "Sent Response message, count"
scalar SimpleRREQ.host[0].epf 	enquireRec:count 	7836
attr interpolationmode  none
attr source  enquireRec
attr title  "Received Enquire message, count"
scalar SimpleRREQ.host[0].epf 	enquireSent:count 	542
attr interpolationmode  none
attr source  enquireSent
attr title  "Sent Enquire message, count"
scalar SimpleRREQ.host[0].epf 	rrep2Rec:count 	0
attr interpolationmode  none
attr source  rrep2Rec
attr title  "Received type 2 RREP, count"
scalar SimpleRREQ.host[0].epf 	rrep1Rec:count 	0
attr interpolationmode  none
attr source  rrep1Rec
attr title  "Received type 1 RREP, count"
scalar SimpleRREQ.host[0].epf 	rrepRec:count 	0
attr interpolationmode  none
attr source  rrepRec
attr title  "Received RREP, count"
scalar SimpleRREQ.host[0].epf 	rreq1Rec:count 	0
attr interpolationmode  none
attr source  rreq1Rec
attr title  "Received type 1 RREQ, count"
scalar SimpleRREQ.host[0].epf 	rreqRec:count 	0
attr interpolationmode  none
attr source  rreqRec
attr title  "Received RREQ, count"
scalar SimpleRREQ.host[0].epf 	rrepSent:count 	0
attr interpolationmode  none
attr source  rrepSent
attr title  "Sent RREP, count"
scalar SimpleRREQ.host[0].epf 	rreqSent:count 	0
attr interpolationmode  none
attr source  rreqSent
attr title  "Sent RREQ, count"
scalar SimpleRREQ.host[1].networkLayer.arp 	sentReply:count 	0
attr title  "ARP replies sent, count"
scalar SimpleRREQ.host[1].networkLayer.arp 	sentReq:count 	0
attr title  "ARP request sent, count"
scalar SimpleRREQ.host[1].networkLayer.arp 	failedARPResolution:count 	0
attr title  "ARP failed resolutions, count"
scalar SimpleRREQ.host[1].networkLayer.arp 	completedARPResolution:count 	0
attr title  "ARP completed resolutions, count"
scalar SimpleRREQ.host[1].networkLayer.arp 	initiatedARPResolution:count 	0
attr title  "ARP initiated resolutions, count"
scalar SimpleRREQ.host[1].lo0.lo 	droppedPkBitError:count 	0
attr interpolationmode  none
attr source  dropPkBitError
attr title  "packets dropped/bit error, count"
scalar SimpleRREQ.host[1].lo0.lo 	droppedPkBitError:sum(packetBytes) 	0
attr interpolationmode  none
attr source  dropPkBitError
attr title  "packets dropped/bit error, sum(packetBytes)"
scalar SimpleRREQ.host[1].lo0.lo 	rcvdPkFromHL:count 	0
attr interpolationmode  none
attr source  packetReceivedFromUpper
attr title  "packets received from higher layer, count"
scalar SimpleRREQ.host[1].lo0.lo 	rcvdPkFromHL:sum(packetBytes) 	0
attr interpolationmode  none
attr source  packetReceivedFromUpper
attr title  "packets received from higher layer, sum(packetBytes)"
scalar SimpleRREQ.host[1].lo0.lo 	passedUpPk:count 	0
attr interpolationmode  none
attr source  packetSentToUpper
attr title  "packets passed to higher layer, count"
scalar SimpleRREQ.host[1].lo0.lo 	passedUpPk:sum(packetBytes) 	0
attr interpolationmode  none
attr source  packetSentToUpper
attr title  "packets passed to higher layer, sum(packetBytes)"
scalar SimpleRREQ.host[1].wlan[0].queue 	queueLength:max 	3
attr interpolationmode  sample-hold
attr title  "queue length, max"
scalar SimpleRREQ.host[1].wlan[0].queue 	queueLength:timeavg 	0.0001070305622225
attr interpolationmode  sample-hold
attr title  "queue length, timeavg"
statistic SimpleRREQ.host[1].wlan[0].queue 	queueingTime:histogram
field count 12338
field mean 1.0409845571973e-005
field stddev 4.6547914340554e-005
field sum 0.128436674667
field sqrsum 2.8067686609555e-005
field min 0
field max 0.000575799408
attr interpolationmode  none
attr title  "queueing time, histogram"
bin	-INF	0
bin	-9.5990885e-005	0
bin	-8.3192100333333e-005	0
bin	-7.0393315666667e-005	0
bin	-5.7594531e-005	0
bin	-4.4795746333333e-005	0
bin	-3.1996961666667e-005	0
bin	-1.9198177e-005	0
bin	-6.3993923333333e-006	11713
bin	6.3993923333333e-006	0
bin	1.9198177e-005	0
bin	3.1996961666667e-005	0
bin	4.4795746333333e-005	0
bin	5.7594531e-005	0
bin	7.0393315666667e-005	0
bin	8.3192100333333e-005	0
bin	9.5990885e-005	0
bin	0.00010878966966667	0
bin	0.00012158845433333	0
bin	0.000134387239	0
bin	0.00014718602366667	0
bin	0.00015998480833333	0
bin	0.000172783593	0
bin	0.00018558237766667	582
bin	0.00019838116233333	0
bin	0.000211179947	0
bin	0.00022397873166667	0
bin	0.00023677751633333	0
bin	0.000249576301	0
bin	0.00026237508566667	0
bin	0.00027517387033333	0
bin	0.000287972655	43
scalar SimpleRREQ.host[1].wlan[0].queue 	dropPk:count 	0
attr interpolationmode  none
attr source  dropPkByQueue
attr title  "dropped packets, count"
scalar SimpleRREQ.host[1].wlan[0].queue 	dropPk:sum(packetBytes) 	0
attr interpolationmode  none
attr source  dropPkByQueue
attr title  "dropped packets, sum(packetBytes)"
scalar SimpleRREQ.host[1].wlan[0].queue 	rcvdPk:count 	12338
attr interpolationmode  none
attr title  "received packets, count"
scalar SimpleRREQ.host[1].wlan[0].queue 	rcvdPk:sum(packetBytes) 	345464
attr interpolationmode  none
attr title  "received packets, sum(packetBytes)"
scalar SimpleRREQ.host[1].wlan[0].mac 	droppedPkNotForUs:count 	0
attr interpolationmode  none
attr source  dropPkNotForUs
attr title  "packets dropped/not for us, count"
scalar SimpleRREQ.host[1].wlan[0].mac 	droppedPkNotForUs:sum(packetBytes) 	0
attr interpolationmode  none
attr source  dropPkNotForUs
attr title  "packets dropped/not for us, sum(packetBytes)"
scalar SimpleRREQ.host[1].wlan[0].mac 	rcvdPkFromHL:count 	12338
attr interpolationmode  none
attr source  packetReceivedFromUpper
attr title  "packets received from higher layer, count"
scalar SimpleRREQ.host[1].wlan[0].mac 	rcvdPkFromHL:sum(packetBytes) 	345464
attr interpolationmode  none
attr source  packetReceivedFromUpper
attr title  "packets received from higher layer, sum(packetBytes)"
scalar SimpleRREQ.host[1].wlan[0].mac 	passedUpPk:count 	91274
attr interpolationmode  none
attr source  packetSentToUpper
attr title  "packets passed to higher layer, count"
scalar SimpleRREQ.host[1].wlan[0].mac 	passedUpPk:sum(packetBytes) 	2555672
attr interpolationmode  none
attr source  packetSentToUpper
attr title  "packets passed to higher layer, sum(packetBytes)"
scalar SimpleRREQ.host[1].wlan[0].mac 	rcvdPkFromLL:count 	91274
attr interpolationmode  none
attr source  packetReceivedFromLower
attr title  "packets received from lower layer, count"
scalar SimpleRREQ.host[1].wlan[0].mac 	rcvdPkFromLL:sum(packetBytes) 	4381152
attr interpolationmode  none
attr source  packetReceivedFromLower
attr title  "packets received from lower layer, sum(packetBytes)"
scalar SimpleRREQ.host[1].wlan[0].mac 	sentDownPk:count 	12338
attr interpolationmode  none
attr source  packetSentToLower
attr title  "packets sent to lower layer, count"
scalar SimpleRREQ.host[1].wlan[0].mac 	sentDownPk:sum(packetBytes) 	592224
attr interpolationmode  none
attr source  packetSentToLower
attr title  "packets sent to lower layer, sum(packetBytes)"
statistic SimpleRREQ.host[1].wlan[0].radio 	symbolErrorRate:histogram
field count 91274
field mean 0.49240747638977
field stddev 0.49994508897407
field sum 44944
field sqrsum 44944
field min 0
field max 1
attr source  symbolErrorRate
attr title  "Symbol error rate, histogram"
bin	-INF	0
bin	-1	0
bin	0	46330
bin	1	44944
bin	2	0
statistic SimpleRREQ.host[1].wlan[0].radio 	bitErrorRate:histogram
field count 91274
field mean 0.49240747638977
field stddev 0.49994508897407
field sum 44944
field sqrsum 44944
field min 0
field max 1
attr source  bitErrorRate
attr title  "Bit error rate, histogram"
bin	-INF	0
bin	-1	0
bin	0	46330
bin	1	44944
bin	2	0
statistic SimpleRREQ.host[1].wlan[0].radio 	packetErrorRate:histogram
field count 91274
field mean 0.49240747638977
field stddev 0.49994508897407
field sum 44944
field sqrsum 44944
field min 0
field max 1
attr source  packetErrorRate
attr title  "Packet error rate, histogram"
bin	-INF	0
bin	-1	0
bin	0	46330
bin	1	44944
bin	2	0
statistic SimpleRREQ.host[1].wlan[0].radio 	minSNIR:histogram
field count 91274
field mean nan
field stddev nan
field sum nan
field sqrsum nan
field min nan
field max nan
attr source  minSNIR
attr title  "Min SNIR, histogram"
bin	-INF	91274
bin	nan	0
bin	nan	0
bin	nan	0
bin	nan	0
bin	nan	0
bin	nan	0
bin	nan	0
bin	nan	0
bin	nan	0
bin	nan	0
bin	nan	0
bin	nan	0
bin	nan	0
bin	nan	0
bin	nan	0
bin	nan	0
bin	nan	0
bin	nan	0
bin	nan	0
bin	nan	0
bin	nan	0
bin	nan	0
bin	nan	0
bin	nan	0
bin	nan	0
bin	nan	0
bin	nan	0
bin	nan	0
bin	nan	0
bin	nan	0
bin	nan	0
scalar SimpleRREQ.host[1].wlan[0].radio 	transmissionState:count 	24676
attr interpolationmode  sample-hold
attr source  transmissionStateChanged
attr title  "Radio transmission state, count"
scalar SimpleRREQ.host[1].wlan[0].radio 	receptionState:count 	182551
attr interpolationmode  sample-hold
attr source  receptionStateChanged
attr title  "Radio reception state, count"
scalar SimpleRREQ.host[1].wlan[0].radio 	radioMode:count 	2
attr interpolationmode  sample-hold
attr source  radioModeChanged
attr title  "Radio mode, count"
scalar SimpleRREQ.host[1].pingApp[0] 	"Pings sent" 	1198
scalar SimpleRREQ.host[1].pingApp[0] 	"ping loss rate (%)" 	100
scalar SimpleRREQ.host[1].pingApp[0] 	"ping out-of-order rate (%)" 	0
scalar SimpleRREQ.host[1].pingApp[0] 	numOutOfOrderArrivals:last 	nan
attr interpolationmode  none
attr title  "ping out-of-order arrivals, last"
scalar SimpleRREQ.host[1].pingApp[0] 	pingRxSeq:count 	0
attr interpolationmode  none
attr title  "ping rx seq, count"
scalar SimpleRREQ.host[1].pingApp[0] 	pingTxSeq:count 	1198
attr interpolationmode  none
attr title  "ping tx seq, count"
scalar SimpleRREQ.host[1].pingApp[0] 	numLost:last 	nan
attr interpolationmode  none
attr title  "pings lost, last"
statistic SimpleRREQ.host[1].pingApp[0] 	rtt:histogram
field count 0
field mean nan
field stddev nan
field sum 0
field sqrsum 0
field min nan
field max nan
attr interpolationmode  none
attr title  "ping round-trip time, histogram"
attr unit  s
bin	-INF	0
bin	-0.5	0
bin	-0.46666666666667	0
bin	-0.43333333333333	0
bin	-0.4	0
bin	-0.36666666666667	0
bin	-0.33333333333333	0
bin	-0.3	0
bin	-0.26666666666667	0
bin	-0.23333333333333	0
bin	-0.2	0
bin	-0.16666666666667	0
bin	-0.13333333333333	0
bin	-0.1	0
bin	-0.066666666666667	0
bin	-0.033333333333333	0
bin	0	0
bin	0.033333333333333	0
bin	0.066666666666667	0
bin	0.1	0
bin	0.13333333333333	0
bin	0.16666666666667	0
bin	0.2	0
bin	0.23333333333333	0
bin	0.26666666666667	0
bin	0.3	0
bin	0.33333333333333	0
bin	0.36666666666667	0
bin	0.4	0
bin	0.43333333333333	0
bin	0.46666666666667	0
bin	0.5	0
scalar SimpleRREQ.host[1].epf 	dataFwd:count 	464
attr interpolationmode  none
attr source  dataFwd
attr title  "Forward Data message, count"
scalar SimpleRREQ.host[1].epf 	dataDest:count 	383
attr interpolationmode  none
attr source  dataDest
attr title  "Received Data message on Destination, count"
scalar SimpleRREQ.host[1].epf 	dataRec:count 	11904
attr interpolationmode  none
attr source  dataRec
attr title  "Received Data message, count"
scalar SimpleRREQ.host[1].epf 	dataSent:count 	873
attr interpolationmode  none
attr source  dataSent
attr title  "Sent Data message, count"
scalar SimpleRREQ.host[1].epf 	destResp:count 	297
attr interpolationmode  none
attr source  destResp
attr title  "Response from destination, count"
scalar SimpleRREQ.host[1].epf 	destEnq:count 	297
attr interpolationmode  none
attr source  destEnq
attr title  "Enquire to Destination, count"
scalar SimpleRREQ.host[1].epf 	respNOkRec:count 	3480
attr interpolationmode  none
attr source  respNOkRec
attr title  "Received Not Ok Response message, count"
scalar SimpleRREQ.host[1].epf 	respNOkSent:count 	3395
attr interpolationmode  none
attr source  respNOkSent
attr title  "Sent Not Ok Response message, count"
scalar SimpleRREQ.host[1].epf 	respOkRec:count 	873
attr interpolationmode  none
attr source  respOkRec
attr title  "Received Ok Response message, count"
scalar SimpleRREQ.host[1].epf 	respOkSent:count 	1953
attr interpolationmode  none
attr source  respOkSent
attr title  "Sent Ok Response message, count"
scalar SimpleRREQ.host[1].epf 	respRec:count 	68346
attr interpolationmode  none
attr source  respRec
attr title  "Received Response message, count"
scalar SimpleRREQ.host[1].epf 	respSent:count 	0
attr interpolationmode  none
attr source  respSent
attr title  "Sent Response message, count"
scalar SimpleRREQ.host[1].epf 	enquireRec:count 	10225
attr interpolationmode  none
attr source  enquireRec
attr title  "Received Enquire message, count"
scalar SimpleRREQ.host[1].epf 	enquireSent:count 	493
attr interpolationmode  none
attr source  enquireSent
attr title  "Sent Enquire message, count"
scalar SimpleRREQ.host[1].epf 	rrep2Rec:count 	0
attr interpolationmode  none
attr source  rrep2Rec
attr title  "Received type 2 RREP, count"
scalar SimpleRREQ.host[1].epf 	rrep1Rec:count 	0
attr interpolationmode  none
attr source  rrep1Rec
attr title  "Received type 1 RREP, count"
scalar SimpleRREQ.host[1].epf 	rrepRec:count 	0
attr interpolationmode  none
attr source  rrepRec
attr title  "Received RREP, count"
scalar SimpleRREQ.host[1].epf 	rreq1Rec:count 	0
attr interpolationmode  none
attr source  rreq1Rec
attr title  "Received type 1 RREQ, count"
scalar SimpleRREQ.host[1].epf 	rreqRec:count 	0
attr interpolationmode  none
attr source  rreqRec
attr title  "Received RREQ, count"
scalar SimpleRREQ.host[1].epf 	rrepSent:count 	0
attr interpolationmode  none
attr source  rrepSent
attr title  "Sent RREP, count"
scalar SimpleRREQ.host[1].epf 	rreqSent:count 	0
attr interpolationmode  none
attr source  rreqSent
attr title  "Sent RREQ, count"
scalar SimpleRREQ.host[2].networkLayer.arp 	sentReply:count 	0
attr title  "ARP replies sent, count"
scalar SimpleRREQ.host[2].networkLayer.arp 	sentReq:count 	0
attr title  "ARP request sent, count"
scalar SimpleRREQ.host[2].networkLayer.arp 	failedARPResolution:count 	0
attr title  "ARP failed resolutions, count"
scalar SimpleRREQ.host[2].networkLayer.arp 	completedARPResolution:count 	0
attr title  "ARP completed resolutions, count"
scalar SimpleRREQ.host[2].networkLayer.arp 	initiatedARPResolution:count 	0
attr title  "ARP initiated resolutions, count"
scalar SimpleRREQ.host[2].lo0.lo 	droppedPkBitError:count 	0
attr interpolationmode  none
attr source  dropPkBitError
attr title  "packets dropped/bit error, count"
scalar SimpleRREQ.host[2].lo0.lo 	droppedPkBitError:sum(packetBytes) 	0
attr interpolationmode  none
attr source  dropPkBitError
attr title  "packets dropped/bit error, sum(packetBytes)"
scalar SimpleRREQ.host[2].lo0.lo 	rcvdPkFromHL:count 	0
attr interpolationmode  none
attr source  packetReceivedFromUpper
attr title  "packets received from higher layer, count"
scalar SimpleRREQ.host[2].lo0.lo 	rcvdPkFromHL:sum(packetBytes) 	0
attr interpolationmode  none
attr source  packetReceivedFromUpper
attr title  "packets received from higher layer, sum(packetBytes)"
scalar SimpleRREQ.host[2].lo0.lo 	passedUpPk:count 	0
attr interpolationmode  none
attr source  packetSentToUpper
attr title  "packets passed to higher layer, count"
scalar SimpleRREQ.host[2].lo0.lo 	passedUpPk:sum(packetBytes) 	0
attr interpolationmode  none
attr source  packetSentToUpper
attr title  "packets passed to higher layer, sum(packetBytes)"
scalar SimpleRREQ.host[2].wlan[0].queue 	queueLength:max 	3
attr interpolationmode  sample-hold
attr title  "queue length, max"
scalar SimpleRREQ.host[2].wlan[0].queue 	queueLength:timeavg 	0.00011649983046417
attr interpolationmode  sample-hold
attr title  "queue length, timeavg"
statistic SimpleRREQ.host[2].wlan[0].queue 	queueingTime:histogram
field count 13242
field mean 1.0557302262272e-005
field stddev 4.7391826021039e-005
field sum 0.139799796557
field sqrsum 3.1214998392205e-005
field min 0
field max 0.00057562809
attr interpolationmode  none
attr title  "queueing time, histogram"
bin	-INF	0
bin	-9.59875515e-005	0
bin	-8.31892113e-005	0
bin	-7.03908711e-005	0
bin	-5.75925309e-005	0
bin	-4.47941907e-005	0
bin	-3.19958505e-005	0
bin	-1.91975103e-005	0
bin	-6.3991701e-006	12571
bin	6.3991701e-006	0
bin	1.91975103e-005	0
bin	3.19958505e-005	0
bin	4.47941907e-005	0
bin	5.75925309e-005	0
bin	7.03908711e-005	0
bin	8.31892113e-005	0
bin	9.59875515e-005	0
bin	0.0001087858917	0
bin	0.0001215842319	0
bin	0.0001343825721	0
bin	0.0001471809123	0
bin	0.0001599792525	0
bin	0.0001727775927	0
bin	0.0001855759329	615
bin	0.0001983742731	0
bin	0.0002111726133	0
bin	0.0002239709535	0
bin	0.0002367692937	0
bin	0.0002495676339	0
bin	0.0002623659741	0
bin	0.0002751643143	0
bin	0.0002879626545	56
scalar SimpleRREQ.host[2].wlan[0].queue 	dropPk:count 	0
attr interpolationmode  none
attr source  dropPkByQueue
attr title  "dropped packets, count"
scalar SimpleRREQ.host[2].wlan[0].queue 	dropPk:sum(packetBytes) 	0
attr interpolationmode  none
attr source  dropPkByQueue
attr title  "dropped packets, sum(packetBytes)"
scalar SimpleRREQ.host[2].wlan[0].queue 	rcvdPk:count 	13242
attr interpolationmode  none
attr title  "received packets, count"
scalar SimpleRREQ.host[2].wlan[0].queue 	rcvdPk:sum(packetBytes) 	370776
attr interpolationmode  none
attr title  "received packets, sum(packetBytes)"
scalar SimpleRREQ.host[2].wlan[0].mac 	droppedPkNotForUs:count 	0
attr interpolationmode  none
attr source  dropPkNotForUs
attr title  "packets dropped/not for us, count"
scalar SimpleRREQ.host[2].wlan[0].mac 	droppedPkNotForUs:sum(packetBytes) 	0
attr interpolationmode  none
attr source  dropPkNotForUs
attr title  "packets dropped/not for us, sum(packetBytes)"
scalar SimpleRREQ.host[2].wlan[0].mac 	rcvdPkFromHL:count 	13242
attr interpolationmode  none
attr source  packetReceivedFromUpper
attr title  "packets received from higher layer, count"
scalar SimpleRREQ.host[2].wlan[0].mac 	rcvdPkFromHL:sum(packetBytes) 	370776
attr interpolationmode  none
attr source  packetReceivedFromUpper
attr title  "packets received from higher layer, sum(packetBytes)"
scalar SimpleRREQ.host[2].wlan[0].mac 	passedUpPk:count 	93478
attr interpolationmode  none
attr source  packetSentToUpper
attr title  "packets passed to higher layer, count"
scalar SimpleRREQ.host[2].wlan[0].mac 	passedUpPk:sum(packetBytes) 	2617384
attr interpolationmode  none
attr source  packetSentToUpper
attr title  "packets passed to higher layer, sum(packetBytes)"
scalar SimpleRREQ.host[2].wlan[0].mac 	rcvdPkFromLL:count 	93478
attr interpolationmode  none
attr source  packetReceivedFromLower
attr title  "packets received from lower layer, count"
scalar SimpleRREQ.host[2].wlan[0].mac 	rcvdPkFromLL:sum(packetBytes) 	4486944
attr interpolationmode  none
attr source  packetReceivedFromLower
attr title  "packets received from lower layer, sum(packetBytes)"
scalar SimpleRREQ.host[2].wlan[0].mac 	sentDownPk:count 	13242
attr interpolationmode  none
attr source  packetSentToLower
attr title  "packets sent to lower layer, count"
scalar SimpleRREQ.host[2].wlan[0].mac 	sentDownPk:sum(packetBytes) 	635616
attr interpolationmode  none
attr source  packetSentToLower
attr title  "packets sent to lower layer, sum(packetBytes)"
statistic SimpleRREQ.host[2].wlan[0].radio 	symbolErrorRate:histogram
field count 93478
field mean 0.48940927277006
field stddev 0.49989049776077
field sum 45749
field sqrsum 45749
field min 0
field max 1
attr source  symbolErrorRate
attr title  "Symbol error rate, histogram"
bin	-INF	0
bin	-1	0
bin	0	47729
bin	1	45749
bin	2	0
statistic SimpleRREQ.host[2].wlan[0].radio 	bitErrorRate:histogram
field count 93478
field mean 0.48940927277006
field stddev 0.49989049776077
field sum 45749
field sqrsum 45749
field min 0
field max 1
attr source  bitErrorRate
attr title  "Bit error rate, histogram"
bin	-INF	0
bin	-1	0
bin	0	47729
bin	1	45749
bin	2	0
statistic SimpleRREQ.host[2].wlan[0].radio 	packetErrorRate:histogram
field count 93478
field mean 0.48940927277006
field stddev 0.49989049776077
field sum 45749
field sqrsum 45749
field min 0
field max 1
attr source  packetErrorRate
attr title  "Packet error rate, histogram"
bin	-INF	0
bin	-1	0
bin	0	47729
bin	1	45749
bin	2	0
statistic SimpleRREQ.host[2].wlan[0].radio 	minSNIR:histogram
field count 93478
field mean nan
field stddev nan
field sum nan
field sqrsum nan
field min nan
field max nan
attr source  minSNIR
attr title  "Min SNIR, histogram"
bin	-INF	93478
bin	nan	0
bin	nan	0
bin	nan	0
bin	nan	0
bin	nan	0
bin	nan	0
bin	nan	0
bin	nan	0
bin	nan	0
bin	nan	0
bin	nan	0
bin	nan	0
bin	nan	0
bin	nan	0
bin	nan	0
bin	nan	0
bin	nan	0
bin	nan	0
bin	nan	0
bin	nan	0
bin	nan	0
bin	nan	0
bin	nan	0
bin	nan	0
bin	nan	0
bin	nan	0
bin	nan	0
bin	nan	0
bin	nan	0
bin	nan	0
bin	nan	0
scalar SimpleRREQ.host[2].wlan[0].radio 	transmissionState:count 	26484
attr interpolationmode  sample-hold
attr source  transmissionStateChanged
attr title  "Radio transmission state, count"
scalar SimpleRREQ.host[2].wlan[0].radio 	receptionState:count 	186958
attr interpolationmode  sample-hold
attr source  receptionStateChanged
attr title  "Radio reception state, count"
scalar SimpleRREQ.host[2].wlan[0].radio 	radioMode:count 	2
attr interpolationmode  sample-hold
attr source  radioModeChanged
attr title  "Radio mode, count"
scalar SimpleRREQ.host[2].pingApp[0] 	"Pings sent" 	1197
scalar SimpleRREQ.host[2].pingApp[0] 	"ping loss rate (%)" 	100
scalar SimpleRREQ.host[2].pingApp[0] 	"ping out-of-order rate (%)" 	0
scalar SimpleRREQ.host[2].pingApp[0] 	numOutOfOrderArrivals:last 	nan
attr interpolationmode  none
attr title  "ping out-of-order arrivals, last"
scalar SimpleRREQ.host[2].pingApp[0] 	pingRxSeq:count 	0
attr interpolationmode  none
attr title  "ping rx seq, count"
scalar SimpleRREQ.host[2].pingApp[0] 	pingTxSeq:count 	1197
attr interpolationmode  none
attr title  "ping tx seq, count"
scalar SimpleRREQ.host[2].pingApp[0] 	numLost:last 	nan
attr interpolationmode  none
attr title  "pings lost, last"
statistic SimpleRREQ.host[2].pingApp[0] 	rtt:histogram
field count 0
field mean nan
field stddev nan
field sum 0
field sqrsum 0
field min nan
field max nan
attr interpolationmode  none
attr title  "ping round-trip time, histogram"
attr unit  s
bin	-INF	0
bin	-0.5	0
bin	-0.46666666666667	0
bin	-0.43333333333333	0
bin	-0.4	0
bin	-0.36666666666667	0
bin	-0.33333333333333	0
bin	-0.3	0
bin	-0.26666666666667	0
bin	-0.23333333333333	0
bin	-0.2	0
bin	-0.16666666666667	0
bin	-0.13333333333333	0
bin	-0.1	0
bin	-0.066666666666667	0
bin	-0.033333333333333	0
bin	0	0
bin	0.033333333333333	0
bin	0.066666666666667	0
bin	0.1	0
bin	0.13333333333333	0
bin	0.16666666666667	0
bin	0.2	0
bin	0.23333333333333	0
bin	0.26666666666667	0
bin	0.3	0
bin	0.33333333333333	0
bin	0.36666666666667	0
bin	0.4	0
bin	0.43333333333333	0
bin	0.46666666666667	0
bin	0.5	0
scalar SimpleRREQ.host[2].epf 	dataFwd:count 	430
attr interpolationmode  none
attr source  dataFwd
attr title  "Forward Data message, count"
scalar SimpleRREQ.host[2].epf 	dataDest:count 	327
attr interpolationmode  none
attr source  dataDest
attr title  "Received Data message on Destination, count"
scalar SimpleRREQ.host[2].epf 	dataRec:count 	11791
attr interpolationmode  none
attr source  dataRec
attr title  "Received Data message, count"
scalar SimpleRREQ.host[2].epf 	dataSent:count 	798
attr interpolationmode  none
attr source  dataSent
attr title  "Sent Data message, count"
scalar SimpleRREQ.host[2].epf 	destResp:count 	320
attr interpolationmode  none
attr source  destResp
attr title  "Response from destination, count"
scalar SimpleRREQ.host[2].epf 	destEnq:count 	320
attr interpolationmode  none
attr source  destEnq
attr title  "Enquire to Destination, count"
scalar SimpleRREQ.host[2].epf 	respNOkRec:count 	3778
attr interpolationmode  none
attr source  respNOkRec
attr title  "Received Not Ok Response message, count"
scalar SimpleRREQ.host[2].epf 	respNOkSent:count 	4416
attr interpolationmode  none
attr source  respNOkSent
attr title  "Sent Not Ok Response message, count"
scalar SimpleRREQ.host[2].epf 	respOkRec:count 	798
attr interpolationmode  none
attr source  respOkRec
attr title  "Received Ok Response message, count"
scalar SimpleRREQ.host[2].epf 	respOkSent:count 	1909
attr interpolationmode  none
attr source  respOkSent
attr title  "Sent Ok Response message, count"
scalar SimpleRREQ.host[2].epf 	respRec:count 	69873
attr interpolationmode  none
attr source  respRec
attr title  "Received Response message, count"
scalar SimpleRREQ.host[2].epf 	respSent:count 	0
attr interpolationmode  none
attr source  respSent
attr title  "Sent Response message, count"
scalar SimpleRREQ.host[2].epf 	enquireRec:count 	11015
attr interpolationmode  none
attr source  enquireRec
attr title  "Received Enquire message, count"
scalar SimpleRREQ.host[2].epf 	enquireSent:count 	568
attr interpolationmode  none
attr source  enquireSent
attr title  "Sent Enquire message, count"
scalar SimpleRREQ.host[2].epf 	rrep2Rec:count 	0
attr interpolationmode  none
attr source  rrep2Rec
attr title  "Received type 2 RREP, count"
scalar SimpleRREQ.host[2].epf 	rrep1Rec:count 	0
attr interpolationmode  none
attr source  rrep1Rec
attr title  "Received type 1 RREP, count"
scalar SimpleRREQ.host[2].epf 	rrepRec:count 	0
attr interpolationmode  none
attr source  rrepRec
attr title  "Received RREP, count"
scalar SimpleRREQ.host[2].epf 	rreq1Rec:count 	0
attr interpolationmode  none
attr source  rreq1Rec
attr title  "Received type 1 RREQ, count"
scalar SimpleRREQ.host[2].epf 	rreqRec:count 	0
attr interpolationmode  none
attr source  rreqRec
attr title  "Received RREQ, count"
scalar SimpleRREQ.host[2].epf 	rrepSent:count 	0
attr interpolationmode  none
attr source  rrepSent
attr title  "Sent RREP, count"
scalar SimpleRREQ.host[2].epf 	rreqSent:count 	0
attr interpolationmode  none
attr source  rreqSent
attr title  "Sent RREQ, count"
scalar SimpleRREQ.host[3].networkLayer.arp 	sentReply:count 	0
attr title  "ARP replies sent, count"
scalar SimpleRREQ.host[3].networkLayer.arp 	sentReq:count 	0
attr title  "ARP request sent, count"
scalar SimpleRREQ.host[3].networkLayer.arp 	failedARPResolution:count 	0
attr title  "ARP failed resolutions, count"
scalar SimpleRREQ.host[3].networkLayer.arp 	completedARPResolution:count 	0
attr title  "ARP completed resolutions, count"
scalar SimpleRREQ.host[3].networkLayer.arp 	initiatedARPResolution:count 	0
attr title  "ARP initiated resolutions, count"
scalar SimpleRREQ.host[3].lo0.lo 	droppedPkBitError:count 	0
attr interpolationmode  none
attr source  dropPkBitError
attr title  "packets dropped/bit error, count"
scalar SimpleRREQ.host[3].lo0.lo 	droppedPkBitError:sum(packetBytes) 	0
attr interpolationmode  none
attr source  dropPkBitError
attr title  "packets dropped/bit error, sum(packetBytes)"
scalar SimpleRREQ.host[3].lo0.lo 	rcvdPkFromHL:count 	0
attr interpolationmode  none
attr source  packetReceivedFromUpper
attr title  "packets received from higher layer, count"
scalar SimpleRREQ.host[3].lo0.lo 	rcvdPkFromHL:sum(packetBytes) 	0
attr interpolationmode  none
attr source  packetReceivedFromUpper
attr title  "packets received from higher layer, sum(packetBytes)"
scalar SimpleRREQ.host[3].lo0.lo 	passedUpPk:count 	0
attr interpolationmode  none
attr source  packetSentToUpper
attr title  "packets passed to higher layer, count"
scalar SimpleRREQ.host[3].lo0.lo 	passedUpPk:sum(packetBytes) 	0
attr interpolationmode  none
attr source  packetSentToUpper
attr title  "packets passed to higher layer, sum(packetBytes)"
scalar SimpleRREQ.host[3].wlan[0].queue 	queueLength:max 	3
attr interpolationmode  sample-hold
attr title  "queue length, max"
scalar SimpleRREQ.host[3].wlan[0].queue 	queueLength:timeavg 	0.00012640463873083
attr interpolationmode  sample-hold
attr title  "queue length, timeavg"
statistic SimpleRREQ.host[3].wlan[0].queue 	queueingTime:histogram
field count 12425
field mean 1.2208093881449e-005
field stddev 5.1453572482595e-005
field sum 0.151685566477
field sqrsum 3.474396042207e-005
field min 0
field max 0.000575904991
attr interpolationmode  none
attr title  "queueing time, histogram"
bin	-INF	0
bin	-9.5986892e-005	0
bin	-8.3188639733333e-005	0
bin	-7.0390387466667e-005	0
bin	-5.75921352e-005	0
bin	-4.4793882933333e-005	0
bin	-3.1995630666667e-005	0
bin	-1.91973784e-005	0
bin	-6.3991261333333e-006	11707
bin	6.3991261333333e-006	0
bin	1.91973784e-005	0
bin	3.1995630666667e-005	0
bin	4.4793882933333e-005	0
bin	5.75921352e-005	0
bin	7.0390387466667e-005	0
bin	8.3188639733333e-005	0
bin	9.5986892e-005	0
bin	0.00010878514426667	0
bin	0.00012158339653333	0
bin	0.0001343816488	0
bin	0.00014717990106667	0
bin	0.00015997815333333	0
bin	0.0001727764056	0
bin	0.00018557465786667	649
bin	0.00019837291013333	0
bin	0.0002111711624	0
bin	0.00022396941466667	0
bin	0.00023676766693333	0
bin	0.0002495659192	0
bin	0.00026236417146667	0
bin	0.00027516242373333	0
bin	0.000287960676	69
scalar SimpleRREQ.host[3].wlan[0].queue 	dropPk:count 	0
attr interpolationmode  none
attr source  dropPkByQueue
attr title  "dropped packets, count"
scalar SimpleRREQ.host[3].wlan[0].queue 	dropPk:sum(packetBytes) 	0
attr interpolationmode  none
attr source  dropPkByQueue
attr title  "dropped packets, sum(packetBytes)"
scalar SimpleRREQ.host[3].wlan[0].queue 	rcvdPk:count 	12425
attr interpolationmode  none
attr title  "received packets, count"
scalar SimpleRREQ.host[3].wlan[0].queue 	rcvdPk:sum(packetBytes) 	347900
attr interpolationmode  none
attr title  "received packets, sum(packetBytes)"
scalar SimpleRREQ.host[3].wlan[0].mac 	droppedPkNotForUs:count 	0
attr interpolationmode  none
attr source  dropPkNotForUs
attr title  "packets dropped/not for us, count"
scalar SimpleRREQ.host[3].wlan[0].mac 	droppedPkNotForUs:sum(packetBytes) 	0
attr interpolationmode  none
attr source  dropPkNotForUs
attr title  "packets dropped/not for us, sum(packetBytes)"
scalar SimpleRREQ.host[3].wlan[0].mac 	rcvdPkFromHL:count 	12425
attr interpolationmode  none
attr source  packetReceivedFromUpper
attr title  "packets received from higher layer, count"
scalar SimpleRREQ.host[3].wlan[0].mac 	rcvdPkFromHL:sum(packetBytes) 	347900
attr interpolationmode  none
attr source  packetReceivedFromUpper
attr title  "packets received from higher layer, sum(packetBytes)"
scalar SimpleRREQ.host[3].wlan[0].mac 	passedUpPk:count 	93063
attr interpolationmode  none
attr source  packetSentToUpper
attr title  "packets passed to higher layer, count"
scalar SimpleRREQ.host[3].wlan[0].mac 	passedUpPk:sum(packetBytes) 	2605764
attr interpolationmode  none
attr source  packetSentToUpper
attr title  "packets passed to higher layer, sum(packetBytes)"
scalar SimpleRREQ.host[3].wlan[0].mac 	rcvdPkFromLL:count 	93063
attr interpolationmode  none
attr source  packetReceivedFromLower
attr title  "packets received from lower layer, count"
scalar SimpleRREQ.host[3].wlan[0].mac 	rcvdPkFromLL:sum(packetBytes) 	4467024
attr interpolationmode  none
attr source  packetReceivedFromLower
attr title  "packets received from lower layer, sum(packetBytes)"
scalar SimpleRREQ.host[3].wlan[0].mac 	sentDownPk:count 	12425
attr interpolationmode  none
attr source  packetSentToLower
attr title  "packets sent to lower layer, count"
scalar SimpleRREQ.host[3].wlan[0].mac 	sentDownPk:sum(packetBytes) 	596400
attr interpolationmode  none
attr source  packetSentToLower
attr title  "packets sent to lower layer, sum(packetBytes)"
statistic SimpleRREQ.host[3].wlan[0].radio 	symbolErrorRate:histogram
field count 93063
field mean 0.51375949625522
field stddev 0.49981332576227
field sum 47812
field sqrsum 47812
field min 0
field max 1
attr source  symbolErrorRate
attr title  "Symbol error rate, histogram"
bin	-INF	0
bin	-1	0
bin	0	45251
bin	1	47812
bin	2	0
statistic SimpleRREQ.host[3].wlan[0].radio 	bitErrorRate:histogram
field count 93063
field mean 0.51375949625522
field stddev 0.49981332576227
field sum 47812
field sqrsum 47812
field min 0
field max 1
attr source  bitErrorRate
attr title  "Bit error rate, histogram"
bin	-INF	0
bin	-1	0
bin	0	45251
bin	1	47812
bin	2	0
statistic SimpleRREQ.host[3].wlan[0].radio 	packetErrorRate:histogram
field count 93063
field mean 0.51375949625522
field stddev 0.49981332576227
field sum 47812
field sqrsum 47812
field min 0
field max 1
attr source  packetErrorRate
attr title  "Packet error rate, histogram"
bin	-INF	0
bin	-1	0
bin	0	45251
bin	1	47812
bin	2	0
statistic SimpleRREQ.host[3].wlan[0].radio 	minSNIR:histogram
field count 93063
field mean nan
field stddev nan
field sum nan
field sqrsum nan
field min nan
field max nan
attr source  minSNIR
attr title  "Min SNIR, histogram"
bin	-INF	93063
bin	nan	0
bin	nan	0
bin	nan	0
bin	nan	0
bin	nan	0
bin	nan	0
bin	nan	0
bin	nan	0
bin	nan	0
bin	nan	0
bin	nan	0
bin	nan	0
bin	nan	0
bin	nan	0
bin	nan	0
bin	nan	0
bin	nan	0
bin	nan	0
bin	nan	0
bin	nan	0
bin	nan	0
bin	nan	0
bin	nan	0
bin	nan	0
bin	nan	0
bin	nan	0
bin	nan	0
bin	nan	0
bin	nan	0
bin	nan	0
bin	nan	0
scalar SimpleRREQ.host[3].wlan[0].radio 	transmissionState:count 	24850
attr interpolationmode  sample-hold
attr source  transmissionStateChanged
attr title  "Radio transmission state, count"
scalar SimpleRREQ.host[3].wlan[0].radio 	receptionState:count 	186130
attr interpolationmode  sample-hold
attr source  receptionStateChanged
attr title  "Radio reception state, count"
scalar SimpleRREQ.host[3].wlan[0].radio 	radioMode:count 	2
attr interpolationmode  sample-hold
attr source  radioModeChanged
attr title  "Radio mode, count"
scalar SimpleRREQ.host[3].pingApp[0] 	"Pings sent" 	1198
scalar SimpleRREQ.host[3].pingApp[0] 	"ping loss rate (%)" 	100
scalar SimpleRREQ.host[3].pingApp[0] 	"ping out-of-order rate (%)" 	0
scalar SimpleRREQ.host[3].pingApp[0] 	numOutOfOrderArrivals:last 	nan
attr interpolationmode  none
attr title  "ping out-of-order arrivals, last"
scalar SimpleRREQ.host[3].pingApp[0] 	pingRxSeq:count 	0
attr interpolationmode  none
attr title  "ping rx seq, count"
scalar SimpleRREQ.host[3].pingApp[0] 	pingTxSeq:count 	1198
attr interpolationmode  none
attr title  "ping tx seq, count"
scalar SimpleRREQ.host[3].pingApp[0] 	numLost:last 	nan
attr interpolationmode  none
attr title  "pings lost, last"
statistic SimpleRREQ.host[3].pingApp[0] 	rtt:histogram
field count 0
field mean nan
field stddev nan
field sum 0
field sqrsum 0
field min nan
field max nan
attr interpolationmode  none
attr title  "ping round-trip time, histogram"
attr unit  s
bin	-INF	0
bin	-0.5	0
bin	-0.46666666666667	0
bin	-0.43333333333333	0
bin	-0.4	0
bin	-0.36666666666667	0
bin	-0.33333333333333	0
bin	-0.3	0
bin	-0.26666666666667	0
bin	-0.23333333333333	0
bin	-0.2	0
bin	-0.16666666666667	0
bin	-0.13333333333333	0
bin	-0.1	0
bin	-0.066666666666667	0
bin	-0.033333333333333	0
bin	0	0
bin	0.033333333333333	0
bin	0.066666666666667	0
bin	0.1	0
bin	0.13333333333333	0
bin	0.16666666666667	0
bin	0.2	0
bin	0.23333333333333	0
bin	0.26666666666667	0
bin	0.3	0
bin	0.33333333333333	0
bin	0.36666666666667	0
bin	0.4	0
bin	0.43333333333333	0
bin	0.46666666666667	0
bin	0.5	0
scalar SimpleRREQ.host[3].epf 	dataFwd:count 	160
attr interpolationmode  none
attr source  dataFwd
attr title  "Forward Data message, count"
scalar SimpleRREQ.host[3].epf 	dataDest:count 	301
attr interpolationmode  none
attr source  dataDest
attr title  "Received Data message on Destination, count"
scalar SimpleRREQ.host[3].epf 	dataRec:count 	10643
attr interpolationmode  none
attr source  dataRec
attr title  "Received Data message, count"
scalar SimpleRREQ.host[3].epf 	dataSent:count 	426
attr interpolationmode  none
attr source  dataSent
attr title  "Sent Data message, count"
scalar SimpleRREQ.host[3].epf 	destResp:count 	291
attr interpolationmode  none
attr source  destResp
attr title  "Response from destination, count"
scalar SimpleRREQ.host[3].epf 	destEnq:count 	291
attr interpolationmode  none
attr source  destEnq
attr title  "Enquire to Destination, count"
scalar SimpleRREQ.host[3].epf 	respNOkRec:count 	2329
attr interpolationmode  none
attr source  respNOkRec
attr title  "Received Not Ok Response message, count"
scalar SimpleRREQ.host[3].epf 	respNOkSent:count 	4924
attr interpolationmode  none
attr source  respNOkSent
attr title  "Sent Not Ok Response message, count"
scalar SimpleRREQ.host[3].epf 	respOkRec:count 	426
attr interpolationmode  none
attr source  respOkRec
attr title  "Received Ok Response message, count"
scalar SimpleRREQ.host[3].epf 	respOkSent:count 	1438
attr interpolationmode  none
attr source  respOkSent
attr title  "Sent Ok Response message, count"
scalar SimpleRREQ.host[3].epf 	respRec:count 	70935
attr interpolationmode  none
attr source  respRec
attr title  "Received Response message, count"
scalar SimpleRREQ.host[3].epf 	respSent:count 	0
attr interpolationmode  none
attr source  respSent
attr title  "Sent Response message, count"
scalar SimpleRREQ.host[3].epf 	enquireRec:count 	10686
attr interpolationmode  none
attr source  enquireRec
attr title  "Received Enquire message, count"
scalar SimpleRREQ.host[3].epf 	enquireSent:count 	341
attr interpolationmode  none
attr source  enquireSent
attr title  "Sent Enquire message, count"
scalar SimpleRREQ.host[3].epf 	rrep2Rec:count 	0
attr interpolationmode  none
attr source  rrep2Rec
attr title  "Received type 2 RREP, count"
scalar SimpleRREQ.host[3].epf 	rrep1Rec:count 	0
attr interpolationmode  none
attr source  rrep1Rec
attr title  "Received type 1 RREP, count"
scalar SimpleRREQ.host[3].epf 	rrepRec:count 	0
attr interpolationmode  none
attr source  rrepRec
attr title  "Received RREP, count"
scalar SimpleRREQ.host[3].epf 	rreq1Rec:count 	0
attr interpolationmode  none
attr source  rreq1Rec
attr title  "Received type 1 RREQ, count"
scalar SimpleRREQ.host[3].epf 	rreqRec:count 	0
attr interpolationmode  none
attr source  rreqRec
attr title  "Received RREQ, count"
scalar SimpleRREQ.host[3].epf 	rrepSent:count 	0
attr interpolationmode  none
attr source  rrepSent
attr title  "Sent RREP, count"
scalar SimpleRREQ.host[3].epf 	rreqSent:count 	0
attr interpolationmode  none
attr source  rreqSent
attr title  "Sent RREQ, count"
scalar SimpleRREQ.host[4].networkLayer.arp 	sentReply:count 	0
attr title  "ARP replies sent, count"
scalar SimpleRREQ.host[4].networkLayer.arp 	sentReq:count 	0
attr title  "ARP request sent, count"
scalar SimpleRREQ.host[4].networkLayer.arp 	failedARPResolution:count 	0
attr title  "ARP failed resolutions, count"
scalar SimpleRREQ.host[4].networkLayer.arp 	completedARPResolution:count 	0
attr title  "ARP completed resolutions, count"
scalar SimpleRREQ.host[4].networkLayer.arp 	initiatedARPResolution:count 	0
attr title  "ARP initiated resolutions, count"
scalar SimpleRREQ.host[4].lo0.lo 	droppedPkBitError:count 	0
attr interpolationmode  none
attr source  dropPkBitError
attr title  "packets dropped/bit error, count"
scalar SimpleRREQ.host[4].lo0.lo 	droppedPkBitError:sum(packetBytes) 	0
attr interpolationmode  none
attr source  dropPkBitError
attr title  "packets dropped/bit error, sum(packetBytes)"
scalar SimpleRREQ.host[4].lo0.lo 	rcvdPkFromHL:count 	0
attr interpolationmode  none
attr source  packetReceivedFromUpper
attr title  "packets received from higher layer, count"
scalar SimpleRREQ.host[4].lo0.lo 	rcvdPkFromHL:sum(packetBytes) 	0
attr interpolationmode  none
attr source  packetReceivedFromUpper
attr title  "packets received from higher layer, sum(packetBytes)"
scalar SimpleRREQ.host[4].lo0.lo 	passedUpPk:count 	0
attr interpolationmode  none
attr source  packetSentToUpper
attr title  "packets passed to higher layer, count"
scalar SimpleRREQ.host[4].lo0.lo 	passedUpPk:sum(packetBytes) 	0
attr interpolationmode  none
attr source  packetSentToUpper
attr title  "packets passed to higher layer, sum(packetBytes)"
scalar SimpleRREQ.host[4].wlan[0].queue 	queueLength:max 	3
attr interpolationmode  sample-hold
attr title  "queue length, max"
scalar SimpleRREQ.host[4].wlan[0].queue 	queueLength:timeavg 	9.9232594336667e-005
attr interpolationmode  sample-hold
attr title  "queue length, timeavg"
statistic SimpleRREQ.host[4].wlan[0].queue 	queueingTime:histogram
field count 12575
field mean 9.4695119844135e-006
field stddev 4.5177973814397e-005
field sum 0.119079113204
field sqrsum 2.6791775213788e-005
field min 0
field max 0.000575741398
attr interpolationmode  none
attr title  "queueing time, histogram"
bin	-INF	0
bin	-9.59941305e-005	0
bin	-8.31949131e-005	0
bin	-7.03956957e-005	0
bin	-5.75964783e-005	0
bin	-4.47972609e-005	0
bin	-3.19980435e-005	0
bin	-1.91988261e-005	0
bin	-6.3996087e-006	12004
bin	6.3996087e-006	0
bin	1.91988261e-005	0
bin	3.19980435e-005	0
bin	4.47972609e-005	0
bin	5.75964783e-005	0
bin	7.03956957e-005	0
bin	8.31949131e-005	0
bin	9.59941305e-005	0
bin	0.0001087933479	0
bin	0.0001215925653	0
bin	0.0001343917827	0
bin	0.0001471910001	0
bin	0.0001599902175	0
bin	0.0001727894349	0
bin	0.0001855886523	525
bin	0.0001983878697	0
bin	0.0002111870871	0
bin	0.0002239863045	0
bin	0.0002367855219	0
bin	0.0002495847393	0
bin	0.0002623839567	0
bin	0.0002751831741	0
bin	0.0002879823915	46
scalar SimpleRREQ.host[4].wlan[0].queue 	dropPk:count 	0
attr interpolationmode  none
attr source  dropPkByQueue
attr title  "dropped packets, count"
scalar SimpleRREQ.host[4].wlan[0].queue 	dropPk:sum(packetBytes) 	0
attr interpolationmode  none
attr source  dropPkByQueue
attr title  "dropped packets, sum(packetBytes)"
scalar SimpleRREQ.host[4].wlan[0].queue 	rcvdPk:count 	12575
attr interpolationmode  none
attr title  "received packets, count"
scalar SimpleRREQ.host[4].wlan[0].queue 	rcvdPk:sum(packetBytes) 	352100
attr interpolationmode  none
attr title  "received packets, sum(packetBytes)"
scalar SimpleRREQ.host[4].wlan[0].mac 	droppedPkNotForUs:count 	0
attr interpolationmode  none
attr source  dropPkNotForUs
attr title  "packets dropped/not for us, count"
scalar SimpleRREQ.host[4].wlan[0].mac 	droppedPkNotForUs:sum(packetBytes) 	0
attr interpolationmode  none
attr source  dropPkNotForUs
attr title  "packets dropped/not for us, sum(packetBytes)"
scalar SimpleRREQ.host[4].wlan[0].mac 	rcvdPkFromHL:count 	12575
attr interpolationmode  none
attr source  packetReceivedFromUpper
attr title  "packets received from higher layer, count"
scalar SimpleRREQ.host[4].wlan[0].mac 	rcvdPkFromHL:sum(packetBytes) 	352100
attr interpolationmode  none
attr source  packetReceivedFromUpper
attr title  "packets received from higher layer, sum(packetBytes)"
scalar SimpleRREQ.host[4].wlan[0].mac 	passedUpPk:count 	92913
attr interpolationmode  none
attr source  packetSentToUpper
attr title  "packets passed to higher layer, count"
scalar SimpleRREQ.host[4].wlan[0].mac 	passedUpPk:sum(packetBytes) 	2601564
attr interpolationmode  none
attr source  packetSentToUpper
attr title  "packets passed to higher layer, sum(packetBytes)"
scalar SimpleRREQ.host[4].wlan[0].mac 	rcvdPkFromLL:count 	92913
attr interpolationmode  none
attr source  packetReceivedFromLower
attr title  "packets received from lower layer, count"
scalar SimpleRREQ.host[4].wlan[0].mac 	rcvdPkFromLL:sum(packetBytes) 	4459824
attr interpolationmode  none
attr source  packetReceivedFromLower
attr title  "packets received from lower layer, sum(packetBytes)"
scalar SimpleRREQ.host[4].wlan[0].mac 	sentDownPk:count 	12575
attr interpolationmode  none
attr source  packetSentToLower
attr title  "packets sent to lower layer, count"
scalar SimpleRREQ.host[4].wlan[0].mac 	sentDownPk:sum(packetBytes) 	603600
attr interpolationmode  none
attr source  packetSentToLower
attr title  "packets sent to lower layer, sum(packetBytes)"
statistic SimpleRREQ.host[4].wlan[0].radio 	symbolErrorRate:histogram
field count 92913
field mean 0.4957756180513
field stddev 0.49998484489351
field sum 46064
field sqrsum 46064
field min 0
field max 1
attr source  symbolErrorRate
attr title  "Symbol error rate, histogram"
bin	-INF	0
bin	-1	0
bin	0	46849
bin	1	46064
bin	2	0
statistic SimpleRREQ.host[4].wlan[0].radio 	bitErrorRate:histogram
field count 92913
field mean 0.4957756180513
field stddev 0.49998484489351
field sum 46064
field sqrsum 46064
field min 0
field max 1
attr source  bitErrorRate
attr title  "Bit error rate, histogram"
bin	-INF	0
bin	-1	0
bin	0	46849
bin	1	46064
bin	2	0
statistic SimpleRREQ.host[4].wlan[0].radio 	packetErrorRate:histogram
field count 92913
field mean 0.4957756180513
field stddev 0.49998484489351
field sum 46064
field sqrsum 46064
field min 0
field max 1
attr source  packetErrorRate
attr title  "Packet error rate, histogram"
bin	-INF	0
bin	-1	0
bin	0	46849
bin	1	46064
bin	2	0
statistic SimpleRREQ.host[4].wlan[0].radio 	minSNIR:histogram
field count 92913
field mean nan
field stddev nan
field sum nan
field sqrsum nan
field min nan
field max nan
attr source  minSNIR
attr title  "Min SNIR, histogram"
bin	-INF	92913
bin	nan	0
bin	nan	0
bin	nan	0
bin	nan	0
bin	nan	0
bin	nan	0
bin	nan	0
bin	nan	0
bin	nan	0
bin	nan	0
bin	nan	0
bin	nan	0
bin	nan	0
bin	nan	0
bin	nan	0
bin	nan	0
bin	nan	0
bin	nan	0
bin	nan	0
bin	nan	0
bin	nan	0
bin	nan	0
bin	nan	0
bin	nan	0
bin	nan	0
bin	nan	0
bin	nan	0
bin	nan	0
bin	nan	0
bin	nan	0
bin	nan	0
scalar SimpleRREQ.host[4].wlan[0].radio 	transmissionState:count 	25150
attr interpolationmode  sample-hold
attr source  transmissionStateChanged
attr title  "Radio transmission state, count"
scalar SimpleRREQ.host[4].wlan[0].radio 	receptionState:count 	185831
attr interpolationmode  sample-hold
attr source  receptionStateChanged
attr title  "Radio reception state, count"
scalar SimpleRREQ.host[4].wlan[0].radio 	radioMode:count 	2
attr interpolationmode  sample-hold
attr source  radioModeChanged
attr title  "Radio mode, count"
scalar SimpleRREQ.host[4].pingApp[0] 	"Pings sent" 	1198
scalar SimpleRREQ.host[4].pingApp[0] 	"ping loss rate (%)" 	100
scalar SimpleRREQ.host[4].pingApp[0] 	"ping out-of-order rate (%)" 	0
scalar SimpleRREQ.host[4].pingApp[0] 	numOutOfOrderArrivals:last 	nan
attr interpolationmode  none
attr title  "ping out-of-order arrivals, last"
scalar SimpleRREQ.host[4].pingApp[0] 	pingRxSeq:count 	0
attr interpolationmode  none
attr title  "ping rx seq, count"
scalar SimpleRREQ.host[4].pingApp[0] 	pingTxSeq:count 	1198
attr interpolationmode  none
attr title  "ping tx seq, count"
scalar SimpleRREQ.host[4].pingApp[0] 	numLost:last 	nan
attr interpolationmode  none
attr title  "pings lost, last"
statistic SimpleRREQ.host[4].pingApp[0] 	rtt:histogram
field count 0
field mean nan
field stddev nan
field sum 0
field sqrsum 0
field min nan
field max nan
attr interpolationmode  none
attr title  "ping round-trip time, histogram"
attr unit  s
bin	-INF	0
bin	-0.5	0
bin	-0.46666666666667	0
bin	-0.43333333333333	0
bin	-0.4	0
bin	-0.36666666666667	0
bin	-0.33333333333333	0
bin	-0.3	0
bin	-0.26666666666667	0
bin	-0.23333333333333	0
bin	-0.2	0
bin	-0.16666666666667	0
bin	-0.13333333333333	0
bin	-0.1	0
bin	-0.066666666666667	0
bin	-0.033333333333333	0
bin	0	0
bin	0.033333333333333	0
bin	0.066666666666667	0
bin	0.1	0
bin	0.13333333333333	0
bin	0.16666666666667	0
bin	0.2	0
bin	0.23333333333333	0
bin	0.26666666666667	0
bin	0.3	0
bin	0.33333333333333	0
bin	0.36666666666667	0
bin	0.4	0
bin	0.43333333333333	0
bin	0.46666666666667	0
bin	0.5	0
scalar SimpleRREQ.host[4].epf 	dataFwd:count 	362
attr interpolationmode  none
attr source  dataFwd
attr title  "Forward Data message, count"
scalar SimpleRREQ.host[4].epf 	dataDest:count 	405
attr interpolationmode  none
attr source  dataDest
attr title  "Received Data message on Destination, count"
scalar SimpleRREQ.host[4].epf 	dataRec:count 	12148
attr interpolationmode  none
attr source  dataRec
attr title  "Received Data message, count"
scalar SimpleRREQ.host[4].epf 	dataSent:count 	685
attr interpolationmode  none
attr source  dataSent
attr title  "Sent Data message, count"
scalar SimpleRREQ.host[4].epf 	destResp:count 	327
attr interpolationmode  none
attr source  destResp
attr title  "Response from destination, count"
scalar SimpleRREQ.host[4].epf 	destEnq:count 	327
attr interpolationmode  none
attr source  destEnq
attr title  "Enquire to Destination, count"
scalar SimpleRREQ.host[4].epf 	respNOkRec:count 	2710
attr interpolationmode  none
attr source  respNOkRec
attr title  "Received Not Ok Response message, count"
scalar SimpleRREQ.host[4].epf 	respNOkSent:count 	4617
attr interpolationmode  none
attr source  respNOkSent
attr title  "Sent Not Ok Response message, count"
scalar SimpleRREQ.host[4].epf 	respOkRec:count 	685
attr interpolationmode  none
attr source  respOkRec
attr title  "Received Ok Response message, count"
scalar SimpleRREQ.host[4].epf 	respOkSent:count 	1720
attr interpolationmode  none
attr source  respOkSent
attr title  "Sent Ok Response message, count"
scalar SimpleRREQ.host[4].epf 	respRec:count 	69352
attr interpolationmode  none
attr source  respRec
attr title  "Received Response message, count"
scalar SimpleRREQ.host[4].epf 	respSent:count 	0
attr interpolationmode  none
attr source  respSent
attr title  "Sent Response message, count"
scalar SimpleRREQ.host[4].epf 	enquireRec:count 	10614
attr interpolationmode  none
attr source  enquireRec
attr title  "Received Enquire message, count"
scalar SimpleRREQ.host[4].epf 	enquireSent:count 	369
attr interpolationmode  none
attr source  enquireSent
attr title  "Sent Enquire message, count"
scalar SimpleRREQ.host[4].epf 	rrep2Rec:count 	0
attr interpolationmode  none
attr source  rrep2Rec
attr title  "Received type 2 RREP, count"
scalar SimpleRREQ.host[4].epf 	rrep1Rec:count 	0
attr interpolationmode  none
attr source  rrep1Rec
attr title  "Received type 1 RREP, count"
scalar SimpleRREQ.host[4].epf 	rrepRec:count 	0
attr interpolationmode  none
attr source  rrepRec
attr title  "Received RREP, count"
scalar SimpleRREQ.host[4].epf 	rreq1Rec:count 	0
attr interpolationmode  none
attr source  rreq1Rec
attr title  "Received type 1 RREQ, count"
scalar SimpleRREQ.host[4].epf 	rreqRec:count 	0
attr interpolationmode  none
attr source  rreqRec
attr title  "Received RREQ, count"
scalar SimpleRREQ.host[4].epf 	rrepSent:count 	0
attr interpolationmode  none
attr source  rrepSent
attr title  "Sent RREP, count"
scalar SimpleRREQ.host[4].epf 	rreqSent:count 	0
attr interpolationmode  none
attr source  rreqSent
attr title  "Sent RREQ, count"
scalar SimpleRREQ.host[5].networkLayer.arp 	sentReply:count 	0
attr title  "ARP replies sent, count"
scalar SimpleRREQ.host[5].networkLayer.arp 	sentReq:count 	0
attr title  "ARP request sent, count"
scalar SimpleRREQ.host[5].networkLayer.arp 	failedARPResolution:count 	0
attr title  "ARP failed resolutions, count"
scalar SimpleRREQ.host[5].networkLayer.arp 	completedARPResolution:count 	0
attr title  "ARP completed resolutions, count"
scalar SimpleRREQ.host[5].networkLayer.arp 	initiatedARPResolution:count 	0
attr title  "ARP initiated resolutions, count"
scalar SimpleRREQ.host[5].lo0.lo 	droppedPkBitError:count 	0
attr interpolationmode  none
attr source  dropPkBitError
attr title  "packets dropped/bit error, count"
scalar SimpleRREQ.host[5].lo0.lo 	droppedPkBitError:sum(packetBytes) 	0
attr interpolationmode  none
attr source  dropPkBitError
attr title  "packets dropped/bit error, sum(packetBytes)"
scalar SimpleRREQ.host[5].lo0.lo 	rcvdPkFromHL:count 	0
attr interpolationmode  none
attr source  packetReceivedFromUpper
attr title  "packets received from higher layer, count"
scalar SimpleRREQ.host[5].lo0.lo 	rcvdPkFromHL:sum(packetBytes) 	0
attr interpolationmode  none
attr source  packetReceivedFromUpper
attr title  "packets received from higher layer, sum(packetBytes)"
scalar SimpleRREQ.host[5].lo0.lo 	passedUpPk:count 	0
attr interpolationmode  none
attr source  packetSentToUpper
attr title  "packets passed to higher layer, count"
scalar SimpleRREQ.host[5].lo0.lo 	passedUpPk:sum(packetBytes) 	0
attr interpolationmode  none
attr source  packetSentToUpper
attr title  "packets passed to higher layer, sum(packetBytes)"
scalar SimpleRREQ.host[5].wlan[0].queue 	queueLength:max 	3
attr interpolationmode  sample-hold
attr title  "queue length, max"
scalar SimpleRREQ.host[5].wlan[0].queue 	queueLength:timeavg 	0.00012291317540333
attr interpolationmode  sample-hold
attr title  "queue length, timeavg"
statistic SimpleRREQ.host[5].wlan[0].queue 	queueingTime:histogram
field count 11939
field mean 1.2354117638328e-005
field stddev 5.1516556280224e-005
field sum 0.147495810484
field sqrsum 3.3505102200161e-005
field min 0
field max 0.000575854383
attr interpolationmode  none
attr title  "queueing time, histogram"
bin	-INF	0
bin	-0.0001919729895	0
bin	-0.0001663765909	0
bin	-0.0001407801923	0
bin	-0.0001151837937	0
bin	-8.95873951e-005	0
bin	-6.39909965e-005	0
bin	-3.83945979e-005	0
bin	-1.27981993e-005	11236
bin	1.27981993e-005	0
bin	3.83945979e-005	0
bin	6.39909965e-005	0
bin	8.95873951e-005	0
bin	0.0001151837937	0
bin	0.0001407801923	0
bin	0.0001663765909	596
bin	0.0001919729895	46
bin	0.0002175693881	0
bin	0.0002431657867	0
bin	0.0002687621853	0
bin	0.0002943585839	0
bin	0.0003199549825	0
bin	0.0003455513811	0
bin	0.0003711477797	56
bin	0.0003967441783	0
bin	0.0004223405769	0
bin	0.0004479369755	0
bin	0.0004735333741	0
bin	0.0004991297727	0
bin	0.0005247261713	0
bin	0.0005503225699	5
bin	0.0005759189685	0
scalar SimpleRREQ.host[5].wlan[0].queue 	dropPk:count 	0
attr interpolationmode  none
attr source  dropPkByQueue
attr title  "dropped packets, count"
scalar SimpleRREQ.host[5].wlan[0].queue 	dropPk:sum(packetBytes) 	0
attr interpolationmode  none
attr source  dropPkByQueue
attr title  "dropped packets, sum(packetBytes)"
scalar SimpleRREQ.host[5].wlan[0].queue 	rcvdPk:count 	11939
attr interpolationmode  none
attr title  "received packets, count"
scalar SimpleRREQ.host[5].wlan[0].queue 	rcvdPk:sum(packetBytes) 	334292
attr interpolationmode  none
attr title  "received packets, sum(packetBytes)"
scalar SimpleRREQ.host[5].wlan[0].mac 	droppedPkNotForUs:count 	0
attr interpolationmode  none
attr source  dropPkNotForUs
attr title  "packets dropped/not for us, count"
scalar SimpleRREQ.host[5].wlan[0].mac 	droppedPkNotForUs:sum(packetBytes) 	0
attr interpolationmode  none
attr source  dropPkNotForUs
attr title  "packets dropped/not for us, sum(packetBytes)"
scalar SimpleRREQ.host[5].wlan[0].mac 	rcvdPkFromHL:count 	11939
attr interpolationmode  none
attr source  packetReceivedFromUpper
attr title  "packets received from higher layer, count"
scalar SimpleRREQ.host[5].wlan[0].mac 	rcvdPkFromHL:sum(packetBytes) 	334292
attr interpolationmode  none
attr source  packetReceivedFromUpper
attr title  "packets received from higher layer, sum(packetBytes)"
scalar SimpleRREQ.host[5].wlan[0].mac 	passedUpPk:count 	91211
attr interpolationmode  none
attr source  packetSentToUpper
attr title  "packets passed to higher layer, count"
scalar SimpleRREQ.host[5].wlan[0].mac 	passedUpPk:sum(packetBytes) 	2553908
attr interpolationmode  none
attr source  packetSentToUpper
attr title  "packets passed to higher layer, sum(packetBytes)"
scalar SimpleRREQ.host[5].wlan[0].mac 	rcvdPkFromLL:count 	91211
attr interpolationmode  none
attr source  packetReceivedFromLower
attr title  "packets received from lower layer, count"
scalar SimpleRREQ.host[5].wlan[0].mac 	rcvdPkFromLL:sum(packetBytes) 	4378128
attr interpolationmode  none
attr source  packetReceivedFromLower
attr title  "packets received from lower layer, sum(packetBytes)"
scalar SimpleRREQ.host[5].wlan[0].mac 	sentDownPk:count 	11939
attr interpolationmode  none
attr source  packetSentToLower
attr title  "packets sent to lower layer, count"
scalar SimpleRREQ.host[5].wlan[0].mac 	sentDownPk:sum(packetBytes) 	573072
attr interpolationmode  none
attr source  packetSentToLower
attr title  "packets sent to lower layer, sum(packetBytes)"
statistic SimpleRREQ.host[5].wlan[0].radio 	symbolErrorRate:histogram
field count 91211
field mean 0.49623400686321
field stddev 0.49998855793681
field sum 45262
field sqrsum 45262
field min 0
field max 1
attr source  symbolErrorRate
attr title  "Symbol error rate, histogram"
bin	-INF	0
bin	-1	0
bin	0	45949
bin	1	45262
bin	2	0
statistic SimpleRREQ.host[5].wlan[0].radio 	bitErrorRate:histogram
field count 91211
field mean 0.49623400686321
field stddev 0.49998855793681
field sum 45262
field sqrsum 45262
field min 0
field max 1
attr source  bitErrorRate
attr title  "Bit error rate, histogram"
bin	-INF	0
bin	-1	0
bin	0	45949
bin	1	45262
bin	2	0
statistic SimpleRREQ.host[5].wlan[0].radio 	packetErrorRate:histogram
field count 91211
field mean 0.49623400686321
field stddev 0.49998855793681
field sum 45262
field sqrsum 45262
field min 0
field max 1
attr source  packetErrorRate
attr title  "Packet error rate, histogram"
bin	-INF	0
bin	-1	0
bin	0	45949
bin	1	45262
bin	2	0
statistic SimpleRREQ.host[5].wlan[0].radio 	minSNIR:histogram
field count 91211
field mean nan
field stddev nan
field sum nan
field sqrsum nan
field min nan
field max nan
attr source  minSNIR
attr title  "Min SNIR, histogram"
bin	-INF	91211
bin	nan	0
bin	nan	0
bin	nan	0
bin	nan	0
bin	nan	0
bin	nan	0
bin	nan	0
bin	nan	0
bin	nan	0
bin	nan	0
bin	nan	0
bin	nan	0
bin	nan	0
bin	nan	0
bin	nan	0
bin	nan	0
bin	nan	0
bin	nan	0
bin	nan	0
bin	nan	0
bin	nan	0
bin	nan	0
bin	nan	0
bin	nan	0
bin	nan	0
bin	nan	0
bin	nan	0
bin	nan	0
bin	nan	0
bin	nan	0
bin	nan	0
scalar SimpleRREQ.host[5].wlan[0].radio 	transmissionState:count 	23878
attr interpolationmode  sample-hold
attr source  transmissionStateChanged
attr title  "Radio transmission state, count"
scalar SimpleRREQ.host[5].wlan[0].radio 	receptionState:count 	182430
attr interpolationmode  sample-hold
attr source  receptionStateChanged
attr title  "Radio reception state, count"
scalar SimpleRREQ.host[5].wlan[0].radio 	radioMode:count 	2
attr interpolationmode  sample-hold
attr source  radioModeChanged
attr title  "Radio mode, count"
scalar SimpleRREQ.host[5].pingApp[0] 	"Pings sent" 	1199
scalar SimpleRREQ.host[5].pingApp[0] 	"ping loss rate (%)" 	100
scalar SimpleRREQ.host[5].pingApp[0] 	"ping out-of-order rate (%)" 	0
scalar SimpleRREQ.host[5].pingApp[0] 	numOutOfOrderArrivals:last 	nan
attr interpolationmode  none
attr title  "ping out-of-order arrivals, last"
scalar SimpleRREQ.host[5].pingApp[0] 	pingRxSeq:count 	0
attr interpolationmode  none
attr title  "ping rx seq, count"
scalar SimpleRREQ.host[5].pingApp[0] 	pingTxSeq:count 	1199
attr interpolationmode  none
attr title  "ping tx seq, count"
scalar SimpleRREQ.host[5].pingApp[0] 	numLost:last 	nan
attr interpolationmode  none
attr title  "pings lost, last"
statistic SimpleRREQ.host[5].pingApp[0] 	rtt:histogram
field count 0
field mean nan
field stddev nan
field sum 0
field sqrsum 0
field min nan
field max nan
attr interpolationmode  none
attr title  "ping round-trip time, histogram"
attr unit  s
bin	-INF	0
bin	-0.5	0
bin	-0.46666666666667	0
bin	-0.43333333333333	0
bin	-0.4	0
bin	-0.36666666666667	0
bin	-0.33333333333333	0
bin	-0.3	0
bin	-0.26666666666667	0
bin	-0.23333333333333	0
bin	-0.2	0
bin	-0.16666666666667	0
bin	-0.13333333333333	0
bin	-0.1	0
bin	-0.066666666666667	0
bin	-0.033333333333333	0
bin	0	0
bin	0.033333333333333	0
bin	0.066666666666667	0
bin	0.1	0
bin	0.13333333333333	0
bin	0.16666666666667	0
bin	0.2	0
bin	0.23333333333333	0
bin	0.26666666666667	0
bin	0.3	0
bin	0.33333333333333	0
bin	0.36666666666667	0
bin	0.4	0
bin	0.43333333333333	0
bin	0.46666666666667	0
bin	0.5	0
scalar SimpleRREQ.host[5].epf 	dataFwd:count 	124
attr interpolationmode  none
attr source  dataFwd
attr title  "Forward Data message, count"
scalar SimpleRREQ.host[5].epf 	dataDest:count 	370
attr interpolationmode  none
attr source  dataDest
attr title  "Received Data message on Destination, count"
scalar SimpleRREQ.host[5].epf 	dataRec:count 	9996
attr interpolationmode  none
attr source  dataRec
attr title  "Received Data message, count"
scalar SimpleRREQ.host[5].epf 	dataSent:count 	421
attr interpolationmode  none
attr source  dataSent
attr title  "Sent Data message, count"
scalar SimpleRREQ.host[5].epf 	destResp:count 	360
attr interpolationmode  none
attr source  destResp
attr title  "Response from destination, count"
scalar SimpleRREQ.host[5].epf 	destEnq:count 	360
attr interpolationmode  none
attr source  destEnq
attr title  "Enquire to Destination, count"
scalar SimpleRREQ.host[5].epf 	respNOkRec:count 	1934
attr interpolationmode  none
attr source  respNOkRec
attr title  "Received Not Ok Response message, count"
scalar SimpleRREQ.host[5].epf 	respNOkSent:count 	5502
attr interpolationmode  none
attr source  respNOkSent
attr title  "Sent Not Ok Response message, count"
scalar SimpleRREQ.host[5].epf 	respOkRec:count 	421
attr interpolationmode  none
attr source  respOkRec
attr title  "Received Ok Response message, count"
scalar SimpleRREQ.host[5].epf 	respOkSent:count 	1217
attr interpolationmode  none
attr source  respOkSent
attr title  "Sent Ok Response message, count"
scalar SimpleRREQ.host[5].epf 	respRec:count 	69997
attr interpolationmode  none
attr source  respRec
attr title  "Received Response message, count"
scalar SimpleRREQ.host[5].epf 	respSent:count 	0
attr interpolationmode  none
attr source  respSent
attr title  "Sent Response message, count"
scalar SimpleRREQ.host[5].epf 	enquireRec:count 	10419
attr interpolationmode  none
attr source  enquireRec
attr title  "Received Enquire message, count"
scalar SimpleRREQ.host[5].epf 	enquireSent:count 	259
attr interpolationmode  none
attr source  enquireSent
attr title  "Sent Enquire message, count"
scalar SimpleRREQ.host[5].epf 	rrep2Rec:count 	0
attr interpolationmode  none
attr source  rrep2Rec
attr title  "Received type 2 RREP, count"
scalar SimpleRREQ.host[5].epf 	rrep1Rec:count 	0
attr interpolationmode  none
attr source  rrep1Rec
attr title  "Received type 1 RREP, count"
scalar SimpleRREQ.host[5].epf 	rrepRec:count 	0
attr interpolationmode  none
attr source  rrepRec
attr title  "Received RREP, count"
scalar SimpleRREQ.host[5].epf 	rreq1Rec:count 	0
attr interpolationmode  none
attr source  rreq1Rec
attr title  "Received type 1 RREQ, count"
scalar SimpleRREQ.host[5].epf 	rreqRec:count 	0
attr interpolationmode  none
attr source  rreqRec
attr title  "Received RREQ, count"
scalar SimpleRREQ.host[5].epf 	rrepSent:count 	0
attr interpolationmode  none
attr source  rrepSent
attr title  "Sent RREP, count"
scalar SimpleRREQ.host[5].epf 	rreqSent:count 	0
attr interpolationmode  none
attr source  rreqSent
attr title  "Sent RREQ, count"
scalar SimpleRREQ.host[6].networkLayer.arp 	sentReply:count 	0
attr title  "ARP replies sent, count"
scalar SimpleRREQ.host[6].networkLayer.arp 	sentReq:count 	0
attr title  "ARP request sent, count"
scalar SimpleRREQ.host[6].networkLayer.arp 	failedARPResolution:count 	0
attr title  "ARP failed resolutions, count"
scalar SimpleRREQ.host[6].networkLayer.arp 	completedARPResolution:count 	0
attr title  "ARP completed resolutions, count"
scalar SimpleRREQ.host[6].networkLayer.arp 	initiatedARPResolution:count 	0
attr title  "ARP initiated resolutions, count"
scalar SimpleRREQ.host[6].lo0.lo 	droppedPkBitError:count 	0
attr interpolationmode  none
attr source  dropPkBitError
attr title  "packets dropped/bit error, count"
scalar SimpleRREQ.host[6].lo0.lo 	droppedPkBitError:sum(packetBytes) 	0
attr interpolationmode  none
attr source  dropPkBitError
attr title  "packets dropped/bit error, sum(packetBytes)"
scalar SimpleRREQ.host[6].lo0.lo 	rcvdPkFromHL:count 	0
attr interpolationmode  none
attr source  packetReceivedFromUpper
attr title  "packets received from higher layer, count"
scalar SimpleRREQ.host[6].lo0.lo 	rcvdPkFromHL:sum(packetBytes) 	0
attr interpolationmode  none
attr source  packetReceivedFromUpper
attr title  "packets received from higher layer, sum(packetBytes)"
scalar SimpleRREQ.host[6].lo0.lo 	passedUpPk:count 	0
attr interpolationmode  none
attr source  packetSentToUpper
attr title  "packets passed to higher layer, count"
scalar SimpleRREQ.host[6].lo0.lo 	passedUpPk:sum(packetBytes) 	0
attr interpolationmode  none
attr source  packetSentToUpper
attr title  "packets passed to higher layer, sum(packetBytes)"
scalar SimpleRREQ.host[6].wlan[0].queue 	queueLength:max 	3
attr interpolationmode  sample-hold
attr title  "queue length, max"
scalar SimpleRREQ.host[6].wlan[0].queue 	queueLength:timeavg 	0.000120954093845
attr interpolationmode  sample-hold
attr title  "queue length, timeavg"
statistic SimpleRREQ.host[6].wlan[0].queue 	queueingTime:histogram
field count 12627
field mean 1.1494805782371e-005
field stddev 4.896419882102e-005
field sum 0.145144912614
field sqrsum 3.1939156246641e-005
field min 0
field max 0.000575578025
attr interpolationmode  none
attr title  "queueing time, histogram"
bin	-INF	0
bin	-0.000191840569	0
bin	-0.00016626182646667	0
bin	-0.00014068308393333	0
bin	-0.0001151043414	0
bin	-8.9525598866667e-005	0
bin	-6.3946856333333e-005	0
bin	-3.83681138e-005	0
bin	-1.2789371266667e-005	11925
bin	1.2789371266667e-005	0
bin	3.83681138e-005	0
bin	6.3946856333333e-005	0
bin	8.9525598866667e-005	0
bin	0.0001151043414	0
bin	0.00014068308393333	0
bin	0.00016626182646667	419
bin	0.000191840569	229
bin	0.00021741931153333	0
bin	0.00024299805406667	0
bin	0.0002685767966	0
bin	0.00029415553913333	0
bin	0.00031973428166667	0
bin	0.0003453130242	0
bin	0.00037089176673333	53
bin	0.00039647050926667	0
bin	0.0004220492518	0
bin	0.00044762799433333	0
bin	0.00047320673686667	0
bin	0.0004987854794	0
bin	0.00052436422193333	0
bin	0.00054994296446667	0
bin	0.000575521707	1
scalar SimpleRREQ.host[6].wlan[0].queue 	dropPk:count 	0
attr interpolationmode  none
attr source  dropPkByQueue
attr title  "dropped packets, count"
scalar SimpleRREQ.host[6].wlan[0].queue 	dropPk:sum(packetBytes) 	0
attr interpolationmode  none
attr source  dropPkByQueue
attr title  "dropped packets, sum(packetBytes)"
scalar SimpleRREQ.host[6].wlan[0].queue 	rcvdPk:count 	12627
attr interpolationmode  none
attr title  "received packets, count"
scalar SimpleRREQ.host[6].wlan[0].queue 	rcvdPk:sum(packetBytes) 	353556
attr interpolationmode  none
attr title  "received packets, sum(packetBytes)"
scalar SimpleRREQ.host[6].wlan[0].mac 	droppedPkNotForUs:count 	0
attr interpolationmode  none
attr source  dropPkNotForUs
attr title  "packets dropped/not for us, count"
scalar SimpleRREQ.host[6].wlan[0].mac 	droppedPkNotForUs:sum(packetBytes) 	0
[...]
attr interpolationmode  none
attr source  packetSentToUpper
attr title  "packets passed to higher layer, count"
scalar SimpleRREQ.host[28].wlan[0].mac 	passedUpPk:sum(packetBytes) 	2770796
attr interpolationmode  none
attr source  packetSentToUpper
attr title  "packets passed to higher layer, sum(packetBytes)"
scalar SimpleRREQ.host[28].wlan[0].mac 	rcvdPkFromLL:count 	98957
attr interpolationmode  none
attr source  packetReceivedFromLower
attr title  "packets received from lower layer, count"
scalar SimpleRREQ.host[28].wlan[0].mac 	rcvdPkFromLL:sum(packetBytes) 	4749936
attr interpolationmode  none
attr source  packetReceivedFromLower
attr title  "packets received from lower layer, sum(packetBytes)"
scalar SimpleRREQ.host[28].wlan[0].mac 	sentDownPk:count 	13649
attr interpolationmode  none
attr source  packetSentToLower
attr title  "packets sent to lower layer, count"
scalar SimpleRREQ.host[28].wlan[0].mac 	sentDownPk:sum(packetBytes) 	655152
attr interpolationmode  none
attr source  packetSentToLower
attr title  "packets sent to lower layer, sum(packetBytes)"
statistic SimpleRREQ.host[28].wlan[0].radio 	symbolErrorRate:histogram
field count 98957
field mean 0.52545044817446
field stddev 0.49935437768932
field sum 51997
field sqrsum 51997
field min 0
field max 1
attr source  symbolErrorRate
attr title  "Symbol error rate, histogram"
bin	-INF	0
bin	-1	0
bin	0	46960
bin	1	51997
bin	2	0
statistic SimpleRREQ.host[28].wlan[0].radio 	bitErrorRate:histogram
field count 98957
field mean 0.52545044817446
field stddev 0.49935437768932
field sum 51997
field sqrsum 51997
field min 0
field max 1
attr source  bitErrorRate
attr title  "Bit error rate, histogram"
bin	-INF	0
bin	-1	0
bin	0	46960
bin	1	51997
bin	2	0
statistic SimpleRREQ.host[28].wlan[0].radio 	packetErrorRate:histogram
field count 98957
field mean 0.52545044817446
field stddev 0.49935437768932
field sum 51997
field sqrsum 51997
field min 0
field max 1
attr source  packetErrorRate
attr title  "Packet error rate, histogram"
bin	-INF	0
bin	-1	0
bin	0	46960
bin	1	51997
bin	2	0
statistic SimpleRREQ.host[28].wlan[0].radio 	minSNIR:histogram
field count 98957
field mean nan
field stddev nan
field sum nan
field sqrsum nan
field min nan
field max nan
attr source  minSNIR
attr title  "Min SNIR, histogram"
bin	-INF	98957
bin	nan	0
bin	nan	0
bin	nan	0
bin	nan	0
bin	nan	0
bin	nan	0
bin	nan	0
bin	nan	0
bin	nan	0
bin	nan	0
bin	nan	0
bin	nan	0
bin	nan	0
bin	nan	0
bin	nan	0
bin	nan	0
bin	nan	0
bin	nan	0
bin	nan	0
bin	nan	0
bin	nan	0
bin	nan	0
bin	nan	0
bin	nan	0
bin	nan	0
bin	nan	0
bin	nan	0
bin	nan	0
bin	nan	0
bin	nan	0
bin	nan	0
scalar SimpleRREQ.host[28].wlan[0].radio 	transmissionState:count 	27298
attr interpolationmode  sample-hold
attr source  transmissionStateChanged
attr title  "Radio transmission state, count"
scalar SimpleRREQ.host[28].wlan[0].radio 	receptionState:count 	197916
attr interpolationmode  sample-hold
attr source  receptionStateChanged
attr title  "Radio reception state, count"
scalar SimpleRREQ.host[28].wlan[0].radio 	radioMode:count 	2
attr interpolationmode  sample-hold
attr source  radioModeChanged
attr title  "Radio mode, count"
scalar SimpleRREQ.host[28].pingApp[0] 	"Pings sent" 	1197
scalar SimpleRREQ.host[28].pingApp[0] 	"ping loss rate (%)" 	100
scalar SimpleRREQ.host[28].pingApp[0] 	"ping out-of-order rate (%)" 	0
scalar SimpleRREQ.host[28].pingApp[0] 	numOutOfOrderArrivals:last 	nan
attr interpolationmode  none
attr title  "ping out-of-order arrivals, last"
scalar SimpleRREQ.host[28].pingApp[0] 	pingRxSeq:count 	0
attr interpolationmode  none
attr title  "ping rx seq, count"
scalar SimpleRREQ.host[28].pingApp[0] 	pingTxSeq:count 	1197
attr interpolationmode  none
attr title  "ping tx seq, count"
scalar SimpleRREQ.host[28].pingApp[0] 	numLost:last 	nan
attr interpolationmode  none
attr title  "pings lost, last"
statistic SimpleRREQ.host[28].pingApp[0] 	rtt:histogram
field count 0
field mean nan
field stddev nan
field sum 0
field sqrsum 0
field min nan
field max nan
attr interpolationmode  none
attr title  "ping round-trip time, histogram"
attr unit  s
bin	-INF	0
bin	-0.5	0
bin	-0.46666666666667	0
bin	-0.43333333333333	0
bin	-0.4	0
bin	-0.36666666666667	0
bin	-0.33333333333333	0
bin	-0.3	0
bin	-0.26666666666667	0
bin	-0.23333333333333	0
bin	-0.2	0
bin	-0.16666666666667	0
bin	-0.13333333333333	0
bin	-0.1	0
bin	-0.066666666666667	0
bin	-0.033333333333333	0
bin	0	0
bin	0.033333333333333	0
bin	0.066666666666667	0
bin	0.1	0
bin	0.13333333333333	0
bin	0.16666666666667	0
bin	0.2	0
bin	0.23333333333333	0
bin	0.26666666666667	0
bin	0.3	0
bin	0.33333333333333	0
bin	0.36666666666667	0
bin	0.4	0
bin	0.43333333333333	0
bin	0.46666666666667	0
bin	0.5	0
scalar SimpleRREQ.host[28].epf 	dataFwd:count 	297
attr interpolationmode  none
attr source  dataFwd
attr title  "Forward Data message, count"
scalar SimpleRREQ.host[28].epf 	dataDest:count 	507
attr interpolationmode  none
attr source  dataDest
attr title  "Received Data message on Destination, count"
scalar SimpleRREQ.host[28].epf 	dataRec:count 	12326
attr interpolationmode  none
attr source  dataRec
attr title  "Received Data message, count"
scalar SimpleRREQ.host[28].epf 	dataSent:count 	457
attr interpolationmode  none
attr source  dataSent
attr title  "Sent Data message, count"
scalar SimpleRREQ.host[28].epf 	destResp:count 	414
attr interpolationmode  none
attr source  destResp
attr title  "Response from destination, count"
scalar SimpleRREQ.host[28].epf 	destEnq:count 	414
attr interpolationmode  none
attr source  destEnq
attr title  "Enquire to Destination, count"
scalar SimpleRREQ.host[28].epf 	respNOkRec:count 	2741
attr interpolationmode  none
attr source  respNOkRec
attr title  "Received Not Ok Response message, count"
scalar SimpleRREQ.host[28].epf 	respNOkSent:count 	5404
attr interpolationmode  none
attr source  respNOkSent
attr title  "Sent Not Ok Response message, count"
scalar SimpleRREQ.host[28].epf 	respOkRec:count 	457
attr interpolationmode  none
attr source  respOkRec
attr title  "Received Ok Response message, count"
scalar SimpleRREQ.host[28].epf 	respOkSent:count 	1859
attr interpolationmode  none
attr source  respOkSent
attr title  "Sent Ok Response message, count"
scalar SimpleRREQ.host[28].epf 	respRec:count 	73907
attr interpolationmode  none
attr source  respRec
attr title  "Received Response message, count"
scalar SimpleRREQ.host[28].epf 	respSent:count 	0
attr interpolationmode  none
attr source  respSent
attr title  "Sent Response message, count"
scalar SimpleRREQ.host[28].epf 	enquireRec:count 	11765
attr interpolationmode  none
attr source  enquireRec
attr title  "Received Enquire message, count"
scalar SimpleRREQ.host[28].epf 	enquireSent:count 	455
attr interpolationmode  none
attr source  enquireSent
attr title  "Sent Enquire message, count"
scalar SimpleRREQ.host[28].epf 	rrep2Rec:count 	0
attr interpolationmode  none
attr source  rrep2Rec
attr title  "Received type 2 RREP, count"
scalar SimpleRREQ.host[28].epf 	rrep1Rec:count 	0
attr interpolationmode  none
attr source  rrep1Rec
attr title  "Received type 1 RREP, count"
scalar SimpleRREQ.host[28].epf 	rrepRec:count 	0
attr interpolationmode  none
attr source  rrepRec
attr title  "Received RREP, count"
scalar SimpleRREQ.host[28].epf 	rreq1Rec:count 	0
attr interpolationmode  none
attr source  rreq1Rec
attr title  "Received type 1 RREQ, count"
scalar SimpleRREQ.host[28].epf 	rreqRec:count 	0
attr interpolationmode  none
attr source  rreqRec
attr title  "Received RREQ, count"
scalar SimpleRREQ.host[28].epf 	rrepSent:count 	0
attr interpolationmode  none
attr source  rrepSent
attr title  "Sent RREP, count"
scalar SimpleRREQ.host[28].epf 	rreqSent:count 	0
attr interpolationmode  none
attr source  rreqSent
attr title  "Sent RREQ, count"
scalar SimpleRREQ.host[29].networkLayer.arp 	sentReply:count 	0
attr title  "ARP replies sent, count"
scalar SimpleRREQ.host[29].networkLayer.arp 	sentReq:count 	0
attr title  "ARP request sent, count"
scalar SimpleRREQ.host[29].networkLayer.arp 	failedARPResolution:count 	0
attr title  "ARP failed resolutions, count"
scalar SimpleRREQ.host[29].networkLayer.arp 	completedARPResolution:count 	0
attr title  "ARP completed resolutions, count"
scalar SimpleRREQ.host[29].networkLayer.arp 	initiatedARPResolution:count 	0
attr title  "ARP initiated resolutions, count"
scalar SimpleRREQ.host[29].lo0.lo 	droppedPkBitError:count 	0
attr interpolationmode  none
attr source  dropPkBitError
attr title  "packets dropped/bit error, count"
scalar SimpleRREQ.host[29].lo0.lo 	droppedPkBitError:sum(packetBytes) 	0
attr interpolationmode  none
attr source  dropPkBitError
attr title  "packets dropped/bit error, sum(packetBytes)"
scalar SimpleRREQ.host[29].lo0.lo 	rcvdPkFromHL:count 	0
attr interpolationmode  none
attr source  packetReceivedFromUpper
attr title  "packets received from higher layer, count"
scalar SimpleRREQ.host[29].lo0.lo 	rcvdPkFromHL:sum(packetBytes) 	0
attr interpolationmode  none
attr source  packetReceivedFromUpper
attr title  "packets received from higher layer, sum(packetBytes)"
scalar SimpleRREQ.host[29].lo0.lo 	passedUpPk:count 	0
attr interpolationmode  none
attr source  packetSentToUpper
attr title  "packets passed to higher layer, count"
scalar SimpleRREQ.host[29].lo0.lo 	passedUpPk:sum(packetBytes) 	0
attr interpolationmode  none
attr source  packetSentToUpper
attr title  "packets passed to higher layer, sum(packetBytes)"
scalar SimpleRREQ.host[29].wlan[0].queue 	queueLength:max 	3
attr interpolationmode  sample-hold
attr title  "queue length, max"
scalar SimpleRREQ.host[29].wlan[0].queue 	queueLength:timeavg 	0.0001318315901
attr interpolationmode  sample-hold
attr title  "queue length, timeavg"
statistic SimpleRREQ.host[29].wlan[0].queue 	queueingTime:histogram
field count 12766
field mean 1.2392128162306e-005
field stddev 5.1297172358093e-005
field sum 0.15819790812
field sqrsum 3.5550228372993e-005
field min 0
field max 0.000575690054
attr interpolationmode  none
attr title  "queueing time, histogram"
bin	-INF	0
bin	-0.0001918310295	0
bin	-0.0001662535589	0
bin	-0.0001406760883	0
bin	-0.0001150986177	0
bin	-8.95211471e-005	0
bin	-6.39436765e-005	0
bin	-3.83662059e-005	0
bin	-1.27887353e-005	12009
bin	1.27887353e-005	0
bin	3.83662059e-005	0
bin	6.39436765e-005	0
bin	8.95211471e-005	0
bin	0.0001150986177	0
bin	0.0001406760883	0
bin	0.0001662535589	402
bin	0.0001918310295	290
bin	0.0002174085001	0
bin	0.0002429859707	0
bin	0.0002685634413	0
bin	0.0002941409119	0
bin	0.0003197183825	0
bin	0.0003452958531	0
bin	0.0003708733237	62
bin	0.0003964507943	0
bin	0.0004220282649	0
bin	0.0004476057355	0
bin	0.0004731832061	0
bin	0.0004987606767	0
bin	0.0005243381473	0
bin	0.0005499156179	1
bin	0.0005754930885	2
scalar SimpleRREQ.host[29].wlan[0].queue 	dropPk:count 	0
attr interpolationmode  none
attr source  dropPkByQueue
attr title  "dropped packets, count"
scalar SimpleRREQ.host[29].wlan[0].queue 	dropPk:sum(packetBytes) 	0
attr interpolationmode  none
attr source  dropPkByQueue
attr title  "dropped packets, sum(packetBytes)"
scalar SimpleRREQ.host[29].wlan[0].queue 	rcvdPk:count 	12766
attr interpolationmode  none
attr title  "received packets, count"
scalar SimpleRREQ.host[29].wlan[0].queue 	rcvdPk:sum(packetBytes) 	357448
attr interpolationmode  none
attr title  "received packets, sum(packetBytes)"
scalar SimpleRREQ.host[29].wlan[0].mac 	droppedPkNotForUs:count 	0
attr interpolationmode  none
attr source  dropPkNotForUs
attr title  "packets dropped/not for us, count"
scalar SimpleRREQ.host[29].wlan[0].mac 	droppedPkNotForUs:sum(packetBytes) 	0
attr interpolationmode  none
attr source  dropPkNotForUs
attr title  "packets dropped/not for us, sum(packetBytes)"
scalar SimpleRREQ.host[29].wlan[0].mac 	rcvdPkFromHL:count 	12766
attr interpolationmode  none
attr source  packetReceivedFromUpper
attr title  "packets received from higher layer, count"
scalar SimpleRREQ.host[29].wlan[0].mac 	rcvdPkFromHL:sum(packetBytes) 	357448
attr interpolationmode  none
attr source  packetReceivedFromUpper
attr title  "packets received from higher layer, sum(packetBytes)"
scalar SimpleRREQ.host[29].wlan[0].mac 	passedUpPk:count 	96023
attr interpolationmode  none
attr source  packetSentToUpper
attr title  "packets passed to higher layer, count"
scalar SimpleRREQ.host[29].wlan[0].mac 	passedUpPk:sum(packetBytes) 	2688644
attr interpolationmode  none
attr source  packetSentToUpper
attr title  "packets passed to higher layer, sum(packetBytes)"
scalar SimpleRREQ.host[29].wlan[0].mac 	rcvdPkFromLL:count 	96023
attr interpolationmode  none
attr source  packetReceivedFromLower
attr title  "packets received from lower layer, count"
scalar SimpleRREQ.host[29].wlan[0].mac 	rcvdPkFromLL:sum(packetBytes) 	4609104
attr interpolationmode  none
attr source  packetReceivedFromLower
attr title  "packets received from lower layer, sum(packetBytes)"
scalar SimpleRREQ.host[29].wlan[0].mac 	sentDownPk:count 	12766
attr interpolationmode  none
attr source  packetSentToLower
attr title  "packets sent to lower layer, count"
scalar SimpleRREQ.host[29].wlan[0].mac 	sentDownPk:sum(packetBytes) 	612768
attr interpolationmode  none
attr source  packetSentToLower
attr title  "packets sent to lower layer, sum(packetBytes)"
statistic SimpleRREQ.host[29].wlan[0].radio 	symbolErrorRate:histogram
field count 96023
field mean 0.52497839059392
field stddev 0.49937829055304
field sum 50410
field sqrsum 50410
field min 0
field max 1
attr source  symbolErrorRate
attr title  "Symbol error rate, histogram"
bin	-INF	0
bin	-1	0
bin	0	45613
bin	1	50410
bin	2	0
statistic SimpleRREQ.host[29].wlan[0].radio 	bitErrorRate:histogram
field count 96023
field mean 0.52497839059392
field stddev 0.49937829055304
field sum 50410
field sqrsum 50410
field min 0
field max 1
attr source  bitErrorRate
attr title  "Bit error rate, histogram"
bin	-INF	0
bin	-1	0
bin	0	45613
bin	1	50410
bin	2	0
statistic SimpleRREQ.host[29].wlan[0].radio 	packetErrorRate:histogram
field count 96023
field mean 0.52497839059392
field stddev 0.49937829055304
field sum 50410
field sqrsum 50410
field min 0
field max 1
attr source  packetErrorRate
attr title  "Packet error rate, histogram"
bin	-INF	0
bin	-1	0
bin	0	45613
bin	1	50410
bin	2	0
statistic SimpleRREQ.host[29].wlan[0].radio 	minSNIR:histogram
field count 96023
field mean nan
field stddev nan
field sum nan
field sqrsum nan
field min nan
field max nan
attr source  minSNIR
attr title  "Min SNIR, histogram"
bin	-INF	96023
bin	nan	0
bin	nan	0
bin	nan	0
bin	nan	0
bin	nan	0
bin	nan	0
bin	nan	0
bin	nan	0
bin	nan	0
bin	nan	0
bin	nan	0
bin	nan	0
bin	nan	0
bin	nan	0
bin	nan	0
bin	nan	0
bin	nan	0
bin	nan	0
bin	nan	0
bin	nan	0
bin	nan	0
bin	nan	0
bin	nan	0
bin	nan	0
bin	nan	0
bin	nan	0
bin	nan	0
bin	nan	0
bin	nan	0
bin	nan	0
bin	nan	0
scalar SimpleRREQ.host[29].wlan[0].radio 	transmissionState:count 	25532
attr interpolationmode  sample-hold
attr source  transmissionStateChanged
attr title  "Radio transmission state, count"
scalar SimpleRREQ.host[29].wlan[0].radio 	receptionState:count 	192048
attr interpolationmode  sample-hold
attr source  receptionStateChanged
attr title  "Radio reception state, count"
scalar SimpleRREQ.host[29].wlan[0].radio 	radioMode:count 	2
attr interpolationmode  sample-hold
attr source  radioModeChanged
attr title  "Radio mode, count"
scalar SimpleRREQ.host[29].pingApp[0] 	"Pings sent" 	1197
scalar SimpleRREQ.host[29].pingApp[0] 	"ping loss rate (%)" 	100
scalar SimpleRREQ.host[29].pingApp[0] 	"ping out-of-order rate (%)" 	0
scalar SimpleRREQ.host[29].pingApp[0] 	numOutOfOrderArrivals:last 	nan
attr interpolationmode  none
attr title  "ping out-of-order arrivals, last"
scalar SimpleRREQ.host[29].pingApp[0] 	pingRxSeq:count 	0
attr interpolationmode  none
attr title  "ping rx seq, count"
scalar SimpleRREQ.host[29].pingApp[0] 	pingTxSeq:count 	1197
attr interpolationmode  none
attr title  "ping tx seq, count"
scalar SimpleRREQ.host[29].pingApp[0] 	numLost:last 	nan
attr interpolationmode  none
attr title  "pings lost, last"
statistic SimpleRREQ.host[29].pingApp[0] 	rtt:histogram
field count 0
field mean nan
field stddev nan
field sum 0
field sqrsum 0
field min nan
field max nan
attr interpolationmode  none
attr title  "ping round-trip time, histogram"
attr unit  s
bin	-INF	0
bin	-0.5	0
bin	-0.46666666666667	0
bin	-0.43333333333333	0
bin	-0.4	0
bin	-0.36666666666667	0
bin	-0.33333333333333	0
bin	-0.3	0
bin	-0.26666666666667	0
bin	-0.23333333333333	0
bin	-0.2	0
bin	-0.16666666666667	0
bin	-0.13333333333333	0
bin	-0.1	0
bin	-0.066666666666667	0
bin	-0.033333333333333	0
bin	0	0
bin	0.033333333333333	0
bin	0.066666666666667	0
bin	0.1	0
bin	0.13333333333333	0
bin	0.16666666666667	0
bin	0.2	0
bin	0.23333333333333	0
bin	0.26666666666667	0
bin	0.3	0
bin	0.33333333333333	0
bin	0.36666666666667	0
bin	0.4	0
bin	0.43333333333333	0
bin	0.46666666666667	0
bin	0.5	0
scalar SimpleRREQ.host[29].epf 	dataFwd:count 	165
attr interpolationmode  none
attr source  dataFwd
attr title  "Forward Data message, count"
scalar SimpleRREQ.host[29].epf 	dataDest:count 	341
attr interpolationmode  none
attr source  dataDest
attr title  "Received Data message on Destination, count"
scalar SimpleRREQ.host[29].epf 	dataRec:count 	11655
attr interpolationmode  none
attr source  dataRec
attr title  "Received Data message, count"
scalar SimpleRREQ.host[29].epf 	dataSent:count 	312
attr interpolationmode  none
attr source  dataSent
attr title  "Sent Data message, count"
scalar SimpleRREQ.host[29].epf 	destResp:count 	331
attr interpolationmode  none
attr source  destResp
attr title  "Response from destination, count"
scalar SimpleRREQ.host[29].epf 	destEnq:count 	331
attr interpolationmode  none
attr source  destEnq
attr title  "Enquire to Destination, count"
scalar SimpleRREQ.host[29].epf 	respNOkRec:count 	1822
attr interpolationmode  none
attr source  respNOkRec
attr title  "Received Not Ok Response message, count"
scalar SimpleRREQ.host[29].epf 	respNOkSent:count 	5517
attr interpolationmode  none
attr source  respNOkSent
attr title  "Sent Not Ok Response message, count"
scalar SimpleRREQ.host[29].epf 	respOkRec:count 	312
attr interpolationmode  none
attr source  respOkRec
attr title  "Received Ok Response message, count"
scalar SimpleRREQ.host[29].epf 	respOkSent:count 	1291
attr interpolationmode  none
attr source  respOkSent
attr title  "Sent Ok Response message, count"
scalar SimpleRREQ.host[29].epf 	respRec:count 	72272
attr interpolationmode  none
attr source  respRec
attr title  "Received Response message, count"
scalar SimpleRREQ.host[29].epf 	respSent:count 	0
attr interpolationmode  none
attr source  respSent
attr title  "Sent Response message, count"
scalar SimpleRREQ.host[29].epf 	enquireRec:count 	11137
attr interpolationmode  none
attr source  enquireRec
attr title  "Received Enquire message, count"
scalar SimpleRREQ.host[29].epf 	enquireSent:count 	267
attr interpolationmode  none
attr source  enquireSent
attr title  "Sent Enquire message, count"
scalar SimpleRREQ.host[29].epf 	rrep2Rec:count 	0
attr interpolationmode  none
attr source  rrep2Rec
attr title  "Received type 2 RREP, count"
scalar SimpleRREQ.host[29].epf 	rrep1Rec:count 	0
attr interpolationmode  none
attr source  rrep1Rec
attr title  "Received type 1 RREP, count"
scalar SimpleRREQ.host[29].epf 	rrepRec:count 	0
attr interpolationmode  none
attr source  rrepRec
attr title  "Received RREP, count"
scalar SimpleRREQ.host[29].epf 	rreq1Rec:count 	0
attr interpolationmode  none
attr source  rreq1Rec
attr title  "Received type 1 RREQ, count"
scalar SimpleRREQ.host[29].epf 	rreqRec:count 	0
attr interpolationmode  none
attr source  rreqRec
attr title  "Received RREQ, count"
scalar SimpleRREQ.host[29].epf 	rrepSent:count 	0
attr interpolationmode  none
attr source  rrepSent
attr title  "Sent RREP, count"
scalar SimpleRREQ.host[29].epf 	rreqSent:count 	0
attr interpolationmode  none
attr source  rreqSent
attr title  "Sent RREQ, count"
