version 2
run SimpleRREQ-2-20161207-12:08:02-5280
attr configname SimpleRREQ
attr datetime 20161207-12:08:02
attr experiment SimpleRREQ
attr inifile omnetpp.ini
attr iterationvars "$0=\"./movements/RandomWaypoint—0-100-0.5.movements\""
attr iterationvars2 "$0=\"./movements/RandomWaypoint—0-100-0.5.movements\", $repetition=2"
attr measurement "$0=\"./movements/RandomWaypoint—0-100-0.5.movements\""
attr network SimpleRREQ
attr processid 5280
attr repetition 2
attr replication #2
attr resultdir results
attr runnumber 2
attr seedset 2
param **.hasStatus true
param **.host[*].mobility.nodeId -1
param **.host[*].mobility.traceFile "${\"./movements/RandomWaypoint—0-100-0.5.movements\"}"
param **.host[*].mobilityType "\"BonnMotionMobility\""
param **.host[*].numPingApps 1
param **.host[*].pingApp[0].destAddr "\"host[0](ipv4)\""
param **.host[*].pingApp[0].printPing true
param **.host[*].pingApp[0].startTime uniform(1s,5s)
param **.mobility.constraintAreaMaxX 600m
param **.mobility.constraintAreaMaxY 600m
param **.mobility.constraintAreaMaxZ 0m
param **.mobility.constraintAreaMinX 0m
param **.mobility.constraintAreaMinY 0m
param **.mobility.constraintAreaMinZ 0m
param **.trickle.Imax 20s
param **.trickle.Imin 10s
param **.trickle.MaxMessages 5
param **.wlan[*].bitrate 2Mbps
param **.wlan[*].mac.address "\"auto\""
param **.wlan[*].mac.cwMinData 7
param **.wlan[*].mac.cwMinMulticast 31
param **.wlan[*].mac.headerLength 20B
param **.wlan[*].mac.maxQueueSize 14
param **.wlan[*].mac.retryLimit 7
param **.wlan[*].mac.rtsThresholdBytes 3000B
param **.wlan[*].mgmt.frameCapacity 10
param **.wlan[*].radio.receiver.ignoreInterference true
param **.wlan[*].radio.transmitter.communicationRange 250m
param **.wlan[*].radio.transmitter.detectionRange 0m
param **.wlan[*].radio.transmitter.headerBitLength 0b
param **.wlan[*].radio.transmitter.interferenceRange 0m
param **.wlan[*].radioType "\"IdealRadio\""
param **.wlan[*].typename "\"IdealWirelessNic\""
param *.host0.numPingApps 1
param *.host0.pingApp[0].printPing true
param *.host0.pingApp[0].startTime uniform(1s,5s)
param *.numHosts 3

scalar SimpleRREQ 	hackForCreateResultsFolder 	0
scalar SimpleRREQ.radioMedium.propagation 	"Arrival computation count" 	10627717
scalar SimpleRREQ.radioMedium 	"transmission count" 	366473
scalar SimpleRREQ.radioMedium 	"radio frame send count" 	10627717
scalar SimpleRREQ.radioMedium 	"reception computation count" 	10626847
scalar SimpleRREQ.radioMedium 	"interference computation count" 	19974602
scalar SimpleRREQ.radioMedium 	"reception decision computation count" 	2639229
scalar SimpleRREQ.radioMedium 	"listening decision computation count" 	6708526
scalar SimpleRREQ.radioMedium 	"reception cache hit" 	91.277965952651
attr unit  %
scalar SimpleRREQ.radioMedium 	"interference cache hit" 	66.666666666667
attr unit  %
scalar SimpleRREQ.radioMedium 	"noise cache hit" 	0
attr unit  %
scalar SimpleRREQ.radioMedium 	"snir cache hit" 	50
attr unit  %
scalar SimpleRREQ.radioMedium 	"reception decision cache hit" 	50
attr unit  %
scalar SimpleRREQ.radioMedium 	"reception result cache hit" 	0
attr unit  %
scalar SimpleRREQ.host[0].networkLayer.arp 	sentReply:count 	0
attr title  "ARP replies sent, count"
scalar SimpleRREQ.host[0].networkLayer.arp 	sentReq:count 	0
attr title  "ARP request sent, count"
scalar SimpleRREQ.host[0].networkLayer.arp 	failedARPResolution:count 	0
attr title  "ARP failed resolutions, count"
scalar SimpleRREQ.host[0].networkLayer.arp 	completedARPResolution:count 	0
attr title  "ARP completed resolutions, count"
scalar SimpleRREQ.host[0].networkLayer.arp 	initiatedARPResolution:count 	0
attr title  "ARP initiated resolutions, count"
scalar SimpleRREQ.host[0].lo0.lo 	droppedPkBitError:count 	0
attr interpolationmode  none
attr source  dropPkBitError
attr title  "packets dropped/bit error, count"
scalar SimpleRREQ.host[0].lo0.lo 	droppedPkBitError:sum(packetBytes) 	0
attr interpolationmode  none
attr source  dropPkBitError
attr title  "packets dropped/bit error, sum(packetBytes)"
scalar SimpleRREQ.host[0].lo0.lo 	rcvdPkFromHL:count 	2392
attr interpolationmode  none
attr source  packetReceivedFromUpper
attr title  "packets received from higher layer, count"
scalar SimpleRREQ.host[0].lo0.lo 	rcvdPkFromHL:sum(packetBytes) 	200928
attr interpolationmode  none
attr source  packetReceivedFromUpper
attr title  "packets received from higher layer, sum(packetBytes)"
scalar SimpleRREQ.host[0].lo0.lo 	passedUpPk:count 	2392
attr interpolationmode  none
attr source  packetSentToUpper
attr title  "packets passed to higher layer, count"
scalar SimpleRREQ.host[0].lo0.lo 	passedUpPk:sum(packetBytes) 	200928
attr interpolationmode  none
attr source  packetSentToUpper
attr title  "packets passed to higher layer, sum(packetBytes)"
scalar SimpleRREQ.host[0].wlan[0].queue 	queueLength:max 	2
attr interpolationmode  sample-hold
attr title  "queue length, max"
scalar SimpleRREQ.host[0].wlan[0].queue 	queueLength:timeavg 	7.2066201015e-005
attr interpolationmode  sample-hold
attr title  "queue length, timeavg"
statistic SimpleRREQ.host[0].wlan[0].queue 	queueingTime:histogram
field count 10343
field mean 8.3611564553804e-006
field stddev 4.1269608024404e-005
field sum 0.086479441218
field sqrsum 1.8337361349976e-005
field min 0
field max 0.000383955127
attr interpolationmode  none
attr title  "queueing time, histogram"
bin	-INF	0
bin	-0.0001919101005	0
bin	-0.0001663220871	0
bin	-0.0001407340737	0
bin	-0.0001151460603	0
bin	-8.95580469e-005	0
bin	-6.39700335e-005	0
bin	-3.83820201e-005	0
bin	-1.27940067e-005	9916
bin	1.27940067e-005	0
bin	3.83820201e-005	0
bin	6.39700335e-005	0
bin	8.95580469e-005	0
bin	0.0001151460603	0
bin	0.0001407340737	0
bin	0.0001663220871	298
bin	0.0001919101005	105
bin	0.0002174981139	0
bin	0.0002430861273	0
bin	0.0002686741407	0
bin	0.0002942621541	0
bin	0.0003198501675	0
bin	0.0003454381809	0
bin	0.0003710261943	24
bin	0.0003966142077	0
bin	0.0004222022211	0
bin	0.0004477902345	0
bin	0.0004733782479	0
bin	0.0004989662613	0
bin	0.0005245542747	0
bin	0.0005501422881	0
bin	0.0005757303015	0
scalar SimpleRREQ.host[0].wlan[0].queue 	dropPk:count 	0
attr interpolationmode  none
attr source  dropPkByQueue
attr title  "dropped packets, count"
scalar SimpleRREQ.host[0].wlan[0].queue 	dropPk:sum(packetBytes) 	0
attr interpolationmode  none
attr source  dropPkByQueue
attr title  "dropped packets, sum(packetBytes)"
scalar SimpleRREQ.host[0].wlan[0].queue 	rcvdPk:count 	10343
attr interpolationmode  none
attr title  "received packets, count"
scalar SimpleRREQ.host[0].wlan[0].queue 	rcvdPk:sum(packetBytes) 	289604
attr interpolationmode  none
attr title  "received packets, sum(packetBytes)"
scalar SimpleRREQ.host[0].wlan[0].mac 	droppedPkNotForUs:count 	0
attr interpolationmode  none
attr source  dropPkNotForUs
attr title  "packets dropped/not for us, count"
scalar SimpleRREQ.host[0].wlan[0].mac 	droppedPkNotForUs:sum(packetBytes) 	0
attr interpolationmode  none
attr source  dropPkNotForUs
attr title  "packets dropped/not for us, sum(packetBytes)"
scalar SimpleRREQ.host[0].wlan[0].mac 	rcvdPkFromHL:count 	10343
attr interpolationmode  none
attr source  packetReceivedFromUpper
attr title  "packets received from higher layer, count"
scalar SimpleRREQ.host[0].wlan[0].mac 	rcvdPkFromHL:sum(packetBytes) 	289604
attr interpolationmode  none
attr source  packetReceivedFromUpper
attr title  "packets received from higher layer, sum(packetBytes)"
scalar SimpleRREQ.host[0].wlan[0].mac 	passedUpPk:count 	69426
attr interpolationmode  none
attr source  packetSentToUpper
attr title  "packets passed to higher layer, count"
scalar SimpleRREQ.host[0].wlan[0].mac 	passedUpPk:sum(packetBytes) 	1943928
attr interpolationmode  none
attr source  packetSentToUpper
attr title  "packets passed to higher layer, sum(packetBytes)"
scalar SimpleRREQ.host[0].wlan[0].mac 	rcvdPkFromLL:count 	69426
attr interpolationmode  none
attr source  packetReceivedFromLower
attr title  "packets received from lower layer, count"
scalar SimpleRREQ.host[0].wlan[0].mac 	rcvdPkFromLL:sum(packetBytes) 	3332448
attr interpolationmode  none
attr source  packetReceivedFromLower
attr title  "packets received from lower layer, sum(packetBytes)"
scalar SimpleRREQ.host[0].wlan[0].mac 	sentDownPk:count 	10343
attr interpolationmode  none
attr source  packetSentToLower
attr title  "packets sent to lower layer, count"
scalar SimpleRREQ.host[0].wlan[0].mac 	sentDownPk:sum(packetBytes) 	496464
attr interpolationmode  none
attr source  packetSentToLower
attr title  "packets sent to lower layer, sum(packetBytes)"
statistic SimpleRREQ.host[0].wlan[0].radio 	symbolErrorRate:histogram
field count 69426
field mean 0.43143778987699
field stddev 0.49528048279857
field sum 29953
field sqrsum 29953
field min 0
field max 1
attr source  symbolErrorRate
attr title  "Symbol error rate, histogram"
bin	-INF	0
bin	-1	0
bin	0	39473
bin	1	29953
bin	2	0
statistic SimpleRREQ.host[0].wlan[0].radio 	bitErrorRate:histogram
field count 69426
field mean 0.43143778987699
field stddev 0.49528048279857
field sum 29953
field sqrsum 29953
field min 0
field max 1
attr source  bitErrorRate
attr title  "Bit error rate, histogram"
bin	-INF	0
bin	-1	0
bin	0	39473
bin	1	29953
bin	2	0
statistic SimpleRREQ.host[0].wlan[0].radio 	packetErrorRate:histogram
field count 69426
field mean 0.43143778987699
field stddev 0.49528048279857
field sum 29953
field sqrsum 29953
field min 0
field max 1
attr source  packetErrorRate
attr title  "Packet error rate, histogram"
bin	-INF	0
bin	-1	0
bin	0	39473
bin	1	29953
bin	2	0
statistic SimpleRREQ.host[0].wlan[0].radio 	minSNIR:histogram
field count 69426
field mean nan
field stddev nan
field sum nan
field sqrsum nan
field min nan
field max nan
attr source  minSNIR
attr title  "Min SNIR, histogram"
bin	-INF	69426
bin	nan	0
bin	nan	0
bin	nan	0
bin	nan	0
bin	nan	0
bin	nan	0
bin	nan	0
bin	nan	0
bin	nan	0
bin	nan	0
bin	nan	0
bin	nan	0
bin	nan	0
bin	nan	0
bin	nan	0
bin	nan	0
bin	nan	0
bin	nan	0
bin	nan	0
bin	nan	0
bin	nan	0
bin	nan	0
bin	nan	0
bin	nan	0
bin	nan	0
bin	nan	0
bin	nan	0
bin	nan	0
bin	nan	0
bin	nan	0
bin	nan	0
scalar SimpleRREQ.host[0].wlan[0].radio 	transmissionState:count 	20686
attr interpolationmode  sample-hold
attr source  transmissionStateChanged
attr title  "Radio transmission state, count"
scalar SimpleRREQ.host[0].wlan[0].radio 	receptionState:count 	138856
attr interpolationmode  sample-hold
attr source  receptionStateChanged
attr title  "Radio reception state, count"
scalar SimpleRREQ.host[0].wlan[0].radio 	radioMode:count 	2
attr interpolationmode  sample-hold
attr source  radioModeChanged
attr title  "Radio mode, count"
scalar SimpleRREQ.host[0].pingApp[0] 	"Pings sent" 	1196
scalar SimpleRREQ.host[0].pingApp[0] 	"ping loss rate (%)" 	0
scalar SimpleRREQ.host[0].pingApp[0] 	"ping out-of-order rate (%)" 	0
scalar SimpleRREQ.host[0].pingApp[0] 	numOutOfOrderArrivals:last 	nan
attr interpolationmode  none
attr title  "ping out-of-order arrivals, last"
scalar SimpleRREQ.host[0].pingApp[0] 	pingRxSeq:count 	1196
attr interpolationmode  none
attr title  "ping rx seq, count"
scalar SimpleRREQ.host[0].pingApp[0] 	pingTxSeq:count 	1196
attr interpolationmode  none
attr title  "ping tx seq, count"
scalar SimpleRREQ.host[0].pingApp[0] 	numLost:last 	nan
attr interpolationmode  none
attr title  "pings lost, last"
statistic SimpleRREQ.host[0].pingApp[0] 	rtt:histogram
field count 1196
field mean 0.29820234113712
field stddev 0.043115443295671
field sum 356.65
field sqrsum 108.5753
field min 0.2
field max 0.4
attr interpolationmode  none
attr title  "ping round-trip time, histogram"
attr unit  s
bin	-INF	0
bin	0.1	0
bin	0.11333333333333	0
bin	0.12666666666667	0
bin	0.14	0
bin	0.15333333333333	0
bin	0.16666666666667	0
bin	0.18	0
bin	0.19333333333333	10
bin	0.20666666666667	37
bin	0.22	41
bin	0.23333333333333	53
bin	0.24666666666667	56
bin	0.26	174
bin	0.27333333333333	101
bin	0.28666666666667	213
bin	0.3	98
bin	0.31333333333333	90
bin	0.32666666666667	131
bin	0.34	64
bin	0.35333333333333	46
bin	0.36666666666667	34
bin	0.38	38
bin	0.39333333333333	10
bin	0.40666666666667	0
bin	0.42	0
bin	0.43333333333333	0
bin	0.44666666666667	0
bin	0.46	0
bin	0.47333333333333	0
bin	0.48666666666667	0
bin	0.5	0
scalar SimpleRREQ.host[0].epf 	dataFwd:count 	505
attr interpolationmode  none
attr source  dataFwd
attr title  "Forward Data message, count"
scalar SimpleRREQ.host[0].epf 	dataDest:count 	315
attr interpolationmode  none
attr source  dataDest
attr title  "Received Data message on Destination, count"
scalar SimpleRREQ.host[0].epf 	dataRec:count 	7793
attr interpolationmode  none
attr source  dataRec
attr title  "Received Data message, count"
scalar SimpleRREQ.host[0].epf 	dataSent:count 	830
attr interpolationmode  none
attr source  dataSent
attr title  "Sent Data message, count"
scalar SimpleRREQ.host[0].epf 	destResp:count 	289
attr interpolationmode  none
attr source  destResp
attr title  "Response from destination, count"
scalar SimpleRREQ.host[0].epf 	destEnq:count 	289
attr interpolationmode  none
attr source  destEnq
attr title  "Enquire to Destination, count"
scalar SimpleRREQ.host[0].epf 	respNOkRec:count 	2878
attr interpolationmode  none
attr source  respNOkRec
attr title  "Received Not Ok Response message, count"
scalar SimpleRREQ.host[0].epf 	respNOkSent:count 	1908
attr interpolationmode  none
attr source  respNOkSent
attr title  "Sent Not Ok Response message, count"
scalar SimpleRREQ.host[0].epf 	respOkRec:count 	830
attr interpolationmode  none
attr source  respOkRec
attr title  "Received Ok Response message, count"
scalar SimpleRREQ.host[0].epf 	respOkSent:count 	1828
attr interpolationmode  none
attr source  respOkSent
attr title  "Sent Ok Response message, count"
scalar SimpleRREQ.host[0].epf 	respRec:count 	52826
attr interpolationmode  none
attr source  respRec
attr title  "Received Response message, count"
scalar SimpleRREQ.host[0].epf 	respSent:count 	0
attr interpolationmode  none
attr source  respSent
attr title  "Sent Response message, count"
scalar SimpleRREQ.host[0].epf 	enquireRec:count 	8008
attr interpolationmode  none
attr source  enquireRec
attr title  "Received Enquire message, count"
scalar SimpleRREQ.host[0].epf 	enquireSent:count 	601
attr interpolationmode  none
attr source  enquireSent
attr title  "Sent Enquire message, count"
scalar SimpleRREQ.host[0].epf 	rrep2Rec:count 	0
attr interpolationmode  none
attr source  rrep2Rec
attr title  "Received type 2 RREP, count"
scalar SimpleRREQ.host[0].epf 	rrep1Rec:count 	0
attr interpolationmode  none
attr source  rrep1Rec
attr title  "Received type 1 RREP, count"
scalar SimpleRREQ.host[0].epf 	rrepRec:count 	0
attr interpolationmode  none
attr source  rrepRec
attr title  "Received RREP, count"
scalar SimpleRREQ.host[0].epf 	rreq1Rec:count 	0
attr interpolationmode  none
attr source  rreq1Rec
attr title  "Received type 1 RREQ, count"
scalar SimpleRREQ.host[0].epf 	rreqRec:count 	0
attr interpolationmode  none
attr source  rreqRec
attr title  "Received RREQ, count"
scalar SimpleRREQ.host[0].epf 	rrepSent:count 	0
attr interpolationmode  none
attr source  rrepSent
attr title  "Sent RREP, count"
scalar SimpleRREQ.host[0].epf 	rreqSent:count 	0
attr interpolationmode  none
attr source  rreqSent
attr title  "Sent RREQ, count"
scalar SimpleRREQ.host[1].networkLayer.arp 	sentReply:count 	0
attr title  "ARP replies sent, count"
scalar SimpleRREQ.host[1].networkLayer.arp 	sentReq:count 	0
attr title  "ARP request sent, count"
scalar SimpleRREQ.host[1].networkLayer.arp 	failedARPResolution:count 	0
attr title  "ARP failed resolutions, count"
scalar SimpleRREQ.host[1].networkLayer.arp 	completedARPResolution:count 	0
attr title  "ARP completed resolutions, count"
scalar SimpleRREQ.host[1].networkLayer.arp 	initiatedARPResolution:count 	0
attr title  "ARP initiated resolutions, count"
scalar SimpleRREQ.host[1].lo0.lo 	droppedPkBitError:count 	0
attr interpolationmode  none
attr source  dropPkBitError
attr title  "packets dropped/bit error, count"
scalar SimpleRREQ.host[1].lo0.lo 	droppedPkBitError:sum(packetBytes) 	0
attr interpolationmode  none
attr source  dropPkBitError
attr title  "packets dropped/bit error, sum(packetBytes)"
scalar SimpleRREQ.host[1].lo0.lo 	rcvdPkFromHL:count 	0
attr interpolationmode  none
attr source  packetReceivedFromUpper
attr title  "packets received from higher layer, count"
scalar SimpleRREQ.host[1].lo0.lo 	rcvdPkFromHL:sum(packetBytes) 	0
attr interpolationmode  none
attr source  packetReceivedFromUpper
attr title  "packets received from higher layer, sum(packetBytes)"
scalar SimpleRREQ.host[1].lo0.lo 	passedUpPk:count 	0
attr interpolationmode  none
attr source  packetSentToUpper
attr title  "packets passed to higher layer, count"
scalar SimpleRREQ.host[1].lo0.lo 	passedUpPk:sum(packetBytes) 	0
attr interpolationmode  none
attr source  packetSentToUpper
attr title  "packets passed to higher layer, sum(packetBytes)"
scalar SimpleRREQ.host[1].wlan[0].queue 	queueLength:max 	4
attr interpolationmode  sample-hold
attr title  "queue length, max"
scalar SimpleRREQ.host[1].wlan[0].queue 	queueLength:timeavg 	0.00012430726370833
attr interpolationmode  sample-hold
attr title  "queue length, timeavg"
statistic SimpleRREQ.host[1].wlan[0].queue 	queueingTime:histogram
field count 13147
field mean 1.1346217117974e-005
field stddev 4.9657126518978e-005
field sum 0.14916871645
field sqrsum 3.4108304638896e-005
field min 0
field max 0.000767520553
attr interpolationmode  none
attr title  "queueing time, histogram"
bin	-INF	0
bin	-9.59962685e-005	0
bin	-8.3196766033333e-005	0
bin	-7.0397263566667e-005	0
bin	-5.75977611e-005	0
bin	-4.4798258633333e-005	0
bin	-3.1998756166667e-005	0
bin	-1.91992537e-005	0
bin	-6.3997512333333e-006	12437
bin	6.3997512333333e-006	0
bin	1.91992537e-005	0
bin	3.1998756166667e-005	0
bin	4.4798258633333e-005	0
bin	5.75977611e-005	0
bin	7.0397263566667e-005	0
bin	8.3196766033333e-005	0
bin	9.59962685e-005	0
bin	0.00010879577096667	0
bin	0.00012159527343333	0
bin	0.0001343947759	0
bin	0.00014719427836667	0
bin	0.00015999378083333	0
bin	0.0001727932833	0
bin	0.00018559278576667	648
bin	0.00019839228823333	0
bin	0.0002111917907	0
bin	0.00022399129316667	0
bin	0.00023679079563333	0
bin	0.0002495902981	0
bin	0.00026238980056667	0
bin	0.00027518930303333	0
bin	0.0002879888055	62
scalar SimpleRREQ.host[1].wlan[0].queue 	dropPk:count 	0
attr interpolationmode  none
attr source  dropPkByQueue
attr title  "dropped packets, count"
scalar SimpleRREQ.host[1].wlan[0].queue 	dropPk:sum(packetBytes) 	0
attr interpolationmode  none
attr source  dropPkByQueue
attr title  "dropped packets, sum(packetBytes)"
scalar SimpleRREQ.host[1].wlan[0].queue 	rcvdPk:count 	13147
attr interpolationmode  none
attr title  "received packets, count"
scalar SimpleRREQ.host[1].wlan[0].queue 	rcvdPk:sum(packetBytes) 	368116
attr interpolationmode  none
attr title  "received packets, sum(packetBytes)"
scalar SimpleRREQ.host[1].wlan[0].mac 	droppedPkNotForUs:count 	0
attr interpolationmode  none
attr source  dropPkNotForUs
attr title  "packets dropped/not for us, count"
scalar SimpleRREQ.host[1].wlan[0].mac 	droppedPkNotForUs:sum(packetBytes) 	0
attr interpolationmode  none
attr source  dropPkNotForUs
attr title  "packets dropped/not for us, sum(packetBytes)"
scalar SimpleRREQ.host[1].wlan[0].mac 	rcvdPkFromHL:count 	13147
attr interpolationmode  none
attr source  packetReceivedFromUpper
attr title  "packets received from higher layer, count"
scalar SimpleRREQ.host[1].wlan[0].mac 	rcvdPkFromHL:sum(packetBytes) 	368116
attr interpolationmode  none
attr source  packetReceivedFromUpper
attr title  "packets received from higher layer, sum(packetBytes)"
scalar SimpleRREQ.host[1].wlan[0].mac 	passedUpPk:count 	89902
attr interpolationmode  none
attr source  packetSentToUpper
attr title  "packets passed to higher layer, count"
scalar SimpleRREQ.host[1].wlan[0].mac 	passedUpPk:sum(packetBytes) 	2517256
attr interpolationmode  none
attr source  packetSentToUpper
attr title  "packets passed to higher layer, sum(packetBytes)"
scalar SimpleRREQ.host[1].wlan[0].mac 	rcvdPkFromLL:count 	89902
attr interpolationmode  none
attr source  packetReceivedFromLower
attr title  "packets received from lower layer, count"
scalar SimpleRREQ.host[1].wlan[0].mac 	rcvdPkFromLL:sum(packetBytes) 	4315296
attr interpolationmode  none
attr source  packetReceivedFromLower
attr title  "packets received from lower layer, sum(packetBytes)"
scalar SimpleRREQ.host[1].wlan[0].mac 	sentDownPk:count 	13147
attr interpolationmode  none
attr source  packetSentToLower
attr title  "packets sent to lower layer, count"
scalar SimpleRREQ.host[1].wlan[0].mac 	sentDownPk:sum(packetBytes) 	631056
attr interpolationmode  none
attr source  packetSentToLower
attr title  "packets sent to lower layer, sum(packetBytes)"
statistic SimpleRREQ.host[1].wlan[0].radio 	symbolErrorRate:histogram
field count 89902
field mean 0.51234677760228
field stddev 0.49985031381791
field sum 46061
field sqrsum 46061
field min 0
field max 1
attr source  symbolErrorRate
attr title  "Symbol error rate, histogram"
bin	-INF	0
bin	-1	0
bin	0	43841
bin	1	46061
bin	2	0
statistic SimpleRREQ.host[1].wlan[0].radio 	bitErrorRate:histogram
field count 89902
field mean 0.51234677760228
field stddev 0.49985031381791
field sum 46061
field sqrsum 46061
field min 0
field max 1
attr source  bitErrorRate
attr title  "Bit error rate, histogram"
bin	-INF	0
bin	-1	0
bin	0	43841
bin	1	46061
bin	2	0
statistic SimpleRREQ.host[1].wlan[0].radio 	packetErrorRate:histogram
field count 89902
field mean 0.51234677760228
field stddev 0.49985031381791
field sum 46061
field sqrsum 46061
field min 0
field max 1
attr source  packetErrorRate
attr title  "Packet error rate, histogram"
bin	-INF	0
bin	-1	0
bin	0	43841
bin	1	46061
bin	2	0
statistic SimpleRREQ.host[1].wlan[0].radio 	minSNIR:histogram
field count 89902
field mean nan
field stddev nan
field sum nan
field sqrsum nan
field min nan
field max nan
attr source  minSNIR
attr title  "Min SNIR, histogram"
bin	-INF	89902
bin	nan	0
bin	nan	0
bin	nan	0
bin	nan	0
bin	nan	0
bin	nan	0
bin	nan	0
bin	nan	0
bin	nan	0
bin	nan	0
bin	nan	0
bin	nan	0
bin	nan	0
bin	nan	0
bin	nan	0
bin	nan	0
bin	nan	0
bin	nan	0
bin	nan	0
bin	nan	0
bin	nan	0
bin	nan	0
bin	nan	0
bin	nan	0
bin	nan	0
bin	nan	0
bin	nan	0
bin	nan	0
bin	nan	0
bin	nan	0
bin	nan	0
scalar SimpleRREQ.host[1].wlan[0].radio 	transmissionState:count 	26294
attr interpolationmode  sample-hold
attr source  transmissionStateChanged
attr title  "Radio transmission state, count"
scalar SimpleRREQ.host[1].wlan[0].radio 	receptionState:count 	179807
attr interpolationmode  sample-hold
attr source  receptionStateChanged
attr title  "Radio reception state, count"
scalar SimpleRREQ.host[1].wlan[0].radio 	radioMode:count 	2
attr interpolationmode  sample-hold
attr source  radioModeChanged
attr title  "Radio mode, count"
scalar SimpleRREQ.host[1].pingApp[0] 	"Pings sent" 	1196
scalar SimpleRREQ.host[1].pingApp[0] 	"ping loss rate (%)" 	100
scalar SimpleRREQ.host[1].pingApp[0] 	"ping out-of-order rate (%)" 	0
scalar SimpleRREQ.host[1].pingApp[0] 	numOutOfOrderArrivals:last 	nan
attr interpolationmode  none
attr title  "ping out-of-order arrivals, last"
scalar SimpleRREQ.host[1].pingApp[0] 	pingRxSeq:count 	0
attr interpolationmode  none
attr title  "ping rx seq, count"
scalar SimpleRREQ.host[1].pingApp[0] 	pingTxSeq:count 	1196
attr interpolationmode  none
attr title  "ping tx seq, count"
scalar SimpleRREQ.host[1].pingApp[0] 	numLost:last 	nan
attr interpolationmode  none
attr title  "pings lost, last"
statistic SimpleRREQ.host[1].pingApp[0] 	rtt:histogram
field count 0
field mean nan
field stddev nan
field sum 0
field sqrsum 0
field min nan
field max nan
attr interpolationmode  none
attr title  "ping round-trip time, histogram"
attr unit  s
bin	-INF	0
bin	-0.5	0
bin	-0.46666666666667	0
bin	-0.43333333333333	0
bin	-0.4	0
bin	-0.36666666666667	0
bin	-0.33333333333333	0
bin	-0.3	0
bin	-0.26666666666667	0
bin	-0.23333333333333	0
bin	-0.2	0
bin	-0.16666666666667	0
bin	-0.13333333333333	0
bin	-0.1	0
bin	-0.066666666666667	0
bin	-0.033333333333333	0
bin	0	0
bin	0.033333333333333	0
bin	0.066666666666667	0
bin	0.1	0
bin	0.13333333333333	0
bin	0.16666666666667	0
bin	0.2	0
bin	0.23333333333333	0
bin	0.26666666666667	0
bin	0.3	0
bin	0.33333333333333	0
bin	0.36666666666667	0
bin	0.4	0
bin	0.43333333333333	0
bin	0.46666666666667	0
bin	0.5	0
scalar SimpleRREQ.host[1].epf 	dataFwd:count 	530
attr interpolationmode  none
attr source  dataFwd
attr title  "Forward Data message, count"
scalar SimpleRREQ.host[1].epf 	dataDest:count 	359
attr interpolationmode  none
attr source  dataDest
attr title  "Received Data message on Destination, count"
scalar SimpleRREQ.host[1].epf 	dataRec:count 	11793
attr interpolationmode  none
attr source  dataRec
attr title  "Received Data message, count"
scalar SimpleRREQ.host[1].epf 	dataSent:count 	854
attr interpolationmode  none
attr source  dataSent
attr title  "Sent Data message, count"
scalar SimpleRREQ.host[1].epf 	destResp:count 	320
attr interpolationmode  none
attr source  destResp
attr title  "Response from destination, count"
scalar SimpleRREQ.host[1].epf 	destEnq:count 	320
attr interpolationmode  none
attr source  destEnq
attr title  "Enquire to Destination, count"
scalar SimpleRREQ.host[1].epf 	respNOkRec:count 	3003
attr interpolationmode  none
attr source  respNOkRec
attr title  "Received Not Ok Response message, count"
scalar SimpleRREQ.host[1].epf 	respNOkSent:count 	3196
attr interpolationmode  none
attr source  respNOkSent
attr title  "Sent Not Ok Response message, count"
scalar SimpleRREQ.host[1].epf 	respOkRec:count 	854
attr interpolationmode  none
attr source  respOkRec
attr title  "Received Ok Response message, count"
scalar SimpleRREQ.host[1].epf 	respOkSent:count 	2227
attr interpolationmode  none
attr source  respOkSent
attr title  "Sent Ok Response message, count"
scalar SimpleRREQ.host[1].epf 	respRec:count 	66409
attr interpolationmode  none
attr source  respRec
attr title  "Received Response message, count"
scalar SimpleRREQ.host[1].epf 	respSent:count 	0
attr interpolationmode  none
attr source  respSent
attr title  "Sent Response message, count"
scalar SimpleRREQ.host[1].epf 	enquireRec:count 	10901
attr interpolationmode  none
attr source  enquireRec
attr title  "Received Enquire message, count"
scalar SimpleRREQ.host[1].epf 	enquireSent:count 	563
attr interpolationmode  none
attr source  enquireSent
attr title  "Sent Enquire message, count"
scalar SimpleRREQ.host[1].epf 	rrep2Rec:count 	0
attr interpolationmode  none
attr source  rrep2Rec
attr title  "Received type 2 RREP, count"
scalar SimpleRREQ.host[1].epf 	rrep1Rec:count 	0
attr interpolationmode  none
attr source  rrep1Rec
attr title  "Received type 1 RREP, count"
scalar SimpleRREQ.host[1].epf 	rrepRec:count 	0
attr interpolationmode  none
attr source  rrepRec
attr title  "Received RREP, count"
scalar SimpleRREQ.host[1].epf 	rreq1Rec:count 	0
attr interpolationmode  none
attr source  rreq1Rec
attr title  "Received type 1 RREQ, count"
scalar SimpleRREQ.host[1].epf 	rreqRec:count 	0
attr interpolationmode  none
attr source  rreqRec
attr title  "Received RREQ, count"
scalar SimpleRREQ.host[1].epf 	rrepSent:count 	0
attr interpolationmode  none
attr source  rrepSent
attr title  "Sent RREP, count"
scalar SimpleRREQ.host[1].epf 	rreqSent:count 	0
attr interpolationmode  none
attr source  rreqSent
attr title  "Sent RREQ, count"
scalar SimpleRREQ.host[2].networkLayer.arp 	sentReply:count 	0
attr title  "ARP replies sent, count"
scalar SimpleRREQ.host[2].networkLayer.arp 	sentReq:count 	0
attr title  "ARP request sent, count"
scalar SimpleRREQ.host[2].networkLayer.arp 	failedARPResolution:count 	0
attr title  "ARP failed resolutions, count"
scalar SimpleRREQ.host[2].networkLayer.arp 	completedARPResolution:count 	0
attr title  "ARP completed resolutions, count"
scalar SimpleRREQ.host[2].networkLayer.arp 	initiatedARPResolution:count 	0
attr title  "ARP initiated resolutions, count"
scalar SimpleRREQ.host[2].lo0.lo 	droppedPkBitError:count 	0
attr interpolationmode  none
attr source  dropPkBitError
attr title  "packets dropped/bit error, count"
scalar SimpleRREQ.host[2].lo0.lo 	droppedPkBitError:sum(packetBytes) 	0
attr interpolationmode  none
attr source  dropPkBitError
attr title  "packets dropped/bit error, sum(packetBytes)"
scalar SimpleRREQ.host[2].lo0.lo 	rcvdPkFromHL:count 	0
attr interpolationmode  none
attr source  packetReceivedFromUpper
attr title  "packets received from higher layer, count"
scalar SimpleRREQ.host[2].lo0.lo 	rcvdPkFromHL:sum(packetBytes) 	0
attr interpolationmode  none
attr source  packetReceivedFromUpper
attr title  "packets received from higher layer, sum(packetBytes)"
scalar SimpleRREQ.host[2].lo0.lo 	passedUpPk:count 	0
attr interpolationmode  none
attr source  packetSentToUpper
attr title  "packets passed to higher layer, count"
scalar SimpleRREQ.host[2].lo0.lo 	passedUpPk:sum(packetBytes) 	0
attr interpolationmode  none
attr source  packetSentToUpper
attr title  "packets passed to higher layer, sum(packetBytes)"
scalar SimpleRREQ.host[2].wlan[0].queue 	queueLength:max 	3
attr interpolationmode  sample-hold
attr title  "queue length, max"
scalar SimpleRREQ.host[2].wlan[0].queue 	queueLength:timeavg 	0.0001318574296025
attr interpolationmode  sample-hold
attr title  "queue length, timeavg"
statistic SimpleRREQ.host[2].wlan[0].queue 	queueingTime:histogram
field count 13455
field mean 1.1759859942252e-005
field stddev 5.0317898023852e-005
field sum 0.158228915523
field sqrsum 3.5924809536508e-005
field min 0
field max 0.000575749263
attr interpolationmode  none
attr title  "queueing time, histogram"
bin	-INF	0
bin	-9.5999325e-005	0
bin	-8.3199415e-005	0
bin	-7.0399505e-005	0
bin	-5.7599595e-005	0
bin	-4.4799685e-005	0
bin	-3.1999775e-005	0
bin	-1.9199865e-005	0
bin	-6.399955e-006	12703
bin	6.399955e-006	0
bin	1.9199865e-005	0
bin	3.1999775e-005	0
bin	4.4799685e-005	0
bin	5.7599595e-005	0
bin	7.0399505e-005	0
bin	8.3199415e-005	0
bin	9.5999325e-005	0
bin	0.000108799235	0
bin	0.000121599145	0
bin	0.000134399055	0
bin	0.000147198965	0
bin	0.000159998875	0
bin	0.000172798785	0
bin	0.000185598695	682
bin	0.000198398605	0
bin	0.000211198515	0
bin	0.000223998425	0
bin	0.000236798335	0
bin	0.000249598245	0
bin	0.000262398155	0
bin	0.000275198065	0
bin	0.000287997975	70
scalar SimpleRREQ.host[2].wlan[0].queue 	dropPk:count 	0
attr interpolationmode  none
attr source  dropPkByQueue
attr title  "dropped packets, count"
scalar SimpleRREQ.host[2].wlan[0].queue 	dropPk:sum(packetBytes) 	0
attr interpolationmode  none
attr source  dropPkByQueue
attr title  "dropped packets, sum(packetBytes)"
scalar SimpleRREQ.host[2].wlan[0].queue 	rcvdPk:count 	13455
attr interpolationmode  none
attr title  "received packets, count"
scalar SimpleRREQ.host[2].wlan[0].queue 	rcvdPk:sum(packetBytes) 	376740
attr interpolationmode  none
attr title  "received packets, sum(packetBytes)"
scalar SimpleRREQ.host[2].wlan[0].mac 	droppedPkNotForUs:count 	0
attr interpolationmode  none
attr source  dropPkNotForUs
attr title  "packets dropped/not for us, count"
scalar SimpleRREQ.host[2].wlan[0].mac 	droppedPkNotForUs:sum(packetBytes) 	0
attr interpolationmode  none
attr source  dropPkNotForUs
attr title  "packets dropped/not for us, sum(packetBytes)"
scalar SimpleRREQ.host[2].wlan[0].mac 	rcvdPkFromHL:count 	13455
attr interpolationmode  none
attr source  packetReceivedFromUpper
attr title  "packets received from higher layer, count"
scalar SimpleRREQ.host[2].wlan[0].mac 	rcvdPkFromHL:sum(packetBytes) 	376740
attr interpolationmode  none
attr source  packetReceivedFromUpper
attr title  "packets received from higher layer, sum(packetBytes)"
scalar SimpleRREQ.host[2].wlan[0].mac 	passedUpPk:count 	92808
attr interpolationmode  none
attr source  packetSentToUpper
attr title  "packets passed to higher layer, count"
scalar SimpleRREQ.host[2].wlan[0].mac 	passedUpPk:sum(packetBytes) 	2598624
attr interpolationmode  none
attr source  packetSentToUpper
attr title  "packets passed to higher layer, sum(packetBytes)"
scalar SimpleRREQ.host[2].wlan[0].mac 	rcvdPkFromLL:count 	92808
attr interpolationmode  none
attr source  packetReceivedFromLower
attr title  "packets received from lower layer, count"
scalar SimpleRREQ.host[2].wlan[0].mac 	rcvdPkFromLL:sum(packetBytes) 	4454784
attr interpolationmode  none
attr source  packetReceivedFromLower
attr title  "packets received from lower layer, sum(packetBytes)"
scalar SimpleRREQ.host[2].wlan[0].mac 	sentDownPk:count 	13455
attr interpolationmode  none
attr source  packetSentToLower
attr title  "packets sent to lower layer, count"
scalar SimpleRREQ.host[2].wlan[0].mac 	sentDownPk:sum(packetBytes) 	645840
attr interpolationmode  none
attr source  packetSentToLower
attr title  "packets sent to lower layer, sum(packetBytes)"
statistic SimpleRREQ.host[2].wlan[0].radio 	symbolErrorRate:histogram
field count 92808
field mean 0.50043099732782
field stddev 0.50000250799534
field sum 46444
field sqrsum 46444
field min 0
field max 1
attr source  symbolErrorRate
attr title  "Symbol error rate, histogram"
bin	-INF	0
bin	-1	0
bin	0	46364
bin	1	46444
bin	2	0
statistic SimpleRREQ.host[2].wlan[0].radio 	bitErrorRate:histogram
field count 92808
field mean 0.50043099732782
field stddev 0.50000250799534
field sum 46444
field sqrsum 46444
field min 0
field max 1
attr source  bitErrorRate
attr title  "Bit error rate, histogram"
bin	-INF	0
bin	-1	0
bin	0	46364
bin	1	46444
bin	2	0
statistic SimpleRREQ.host[2].wlan[0].radio 	packetErrorRate:histogram
field count 92808
field mean 0.50043099732782
field stddev 0.50000250799534
field sum 46444
field sqrsum 46444
field min 0
field max 1
attr source  packetErrorRate
attr title  "Packet error rate, histogram"
bin	-INF	0
bin	-1	0
bin	0	46364
bin	1	46444
bin	2	0
statistic SimpleRREQ.host[2].wlan[0].radio 	minSNIR:histogram
field count 92808
field mean nan
field stddev nan
field sum nan
field sqrsum nan
field min nan
field max nan
attr source  minSNIR
attr title  "Min SNIR, histogram"
bin	-INF	92808
bin	nan	0
bin	nan	0
bin	nan	0
bin	nan	0
bin	nan	0
bin	nan	0
bin	nan	0
bin	nan	0
bin	nan	0
bin	nan	0
bin	nan	0
bin	nan	0
bin	nan	0
bin	nan	0
bin	nan	0
bin	nan	0
bin	nan	0
bin	nan	0
bin	nan	0
bin	nan	0
bin	nan	0
bin	nan	0
bin	nan	0
bin	nan	0
bin	nan	0
bin	nan	0
bin	nan	0
bin	nan	0
bin	nan	0
bin	nan	0
bin	nan	0
scalar SimpleRREQ.host[2].wlan[0].radio 	transmissionState:count 	26910
attr interpolationmode  sample-hold
attr source  transmissionStateChanged
attr title  "Radio transmission state, count"
scalar SimpleRREQ.host[2].wlan[0].radio 	receptionState:count 	185621
attr interpolationmode  sample-hold
attr source  receptionStateChanged
attr title  "Radio reception state, count"
scalar SimpleRREQ.host[2].wlan[0].radio 	radioMode:count 	2
attr interpolationmode  sample-hold
attr source  radioModeChanged
attr title  "Radio mode, count"
scalar SimpleRREQ.host[2].pingApp[0] 	"Pings sent" 	1198
scalar SimpleRREQ.host[2].pingApp[0] 	"ping loss rate (%)" 	100
scalar SimpleRREQ.host[2].pingApp[0] 	"ping out-of-order rate (%)" 	0
scalar SimpleRREQ.host[2].pingApp[0] 	numOutOfOrderArrivals:last 	nan
attr interpolationmode  none
attr title  "ping out-of-order arrivals, last"
scalar SimpleRREQ.host[2].pingApp[0] 	pingRxSeq:count 	0
attr interpolationmode  none
attr title  "ping rx seq, count"
scalar SimpleRREQ.host[2].pingApp[0] 	pingTxSeq:count 	1198
attr interpolationmode  none
attr title  "ping tx seq, count"
scalar SimpleRREQ.host[2].pingApp[0] 	numLost:last 	nan
attr interpolationmode  none
attr title  "pings lost, last"
statistic SimpleRREQ.host[2].pingApp[0] 	rtt:histogram
field count 0
field mean nan
field stddev nan
field sum 0
field sqrsum 0
field min nan
field max nan
attr interpolationmode  none
attr title  "ping round-trip time, histogram"
attr unit  s
bin	-INF	0
bin	-0.5	0
bin	-0.46666666666667	0
bin	-0.43333333333333	0
bin	-0.4	0
bin	-0.36666666666667	0
bin	-0.33333333333333	0
bin	-0.3	0
bin	-0.26666666666667	0
bin	-0.23333333333333	0
bin	-0.2	0
bin	-0.16666666666667	0
bin	-0.13333333333333	0
bin	-0.1	0
bin	-0.066666666666667	0
bin	-0.033333333333333	0
bin	0	0
bin	0.033333333333333	0
bin	0.066666666666667	0
bin	0.1	0
bin	0.13333333333333	0
bin	0.16666666666667	0
bin	0.2	0
bin	0.23333333333333	0
bin	0.26666666666667	0
bin	0.3	0
bin	0.33333333333333	0
bin	0.36666666666667	0
bin	0.4	0
bin	0.43333333333333	0
bin	0.46666666666667	0
bin	0.5	0
scalar SimpleRREQ.host[2].epf 	dataFwd:count 	440
attr interpolationmode  none
attr source  dataFwd
attr title  "Forward Data message, count"
scalar SimpleRREQ.host[2].epf 	dataDest:count 	293
attr interpolationmode  none
attr source  dataDest
attr title  "Received Data message on Destination, count"
scalar SimpleRREQ.host[2].epf 	dataRec:count 	11712
attr interpolationmode  none
attr source  dataRec
attr title  "Received Data message, count"
scalar SimpleRREQ.host[2].epf 	dataSent:count 	815
attr interpolationmode  none
attr source  dataSent
attr title  "Sent Data message, count"
scalar SimpleRREQ.host[2].epf 	destResp:count 	294
attr interpolationmode  none
attr source  destResp
attr title  "Response from destination, count"
scalar SimpleRREQ.host[2].epf 	destEnq:count 	294
attr interpolationmode  none
attr source  destEnq
attr title  "Enquire to Destination, count"
scalar SimpleRREQ.host[2].epf 	respNOkRec:count 	3559
attr interpolationmode  none
attr source  respNOkRec
attr title  "Received Not Ok Response message, count"
scalar SimpleRREQ.host[2].epf 	respNOkSent:count 	4216
attr interpolationmode  none
attr source  respNOkSent
attr title  "Sent Not Ok Response message, count"
scalar SimpleRREQ.host[2].epf 	respOkRec:count 	815
attr interpolationmode  none
attr source  respOkRec
attr title  "Received Ok Response message, count"
scalar SimpleRREQ.host[2].epf 	respOkSent:count 	2022
attr interpolationmode  none
attr source  respOkSent
attr title  "Sent Ok Response message, count"
scalar SimpleRREQ.host[2].epf 	respRec:count 	69058
attr interpolationmode  none
attr source  respRec
attr title  "Received Response message, count"
scalar SimpleRREQ.host[2].epf 	respSent:count 	0
attr interpolationmode  none
attr source  respSent
attr title  "Sent Response message, count"
scalar SimpleRREQ.host[2].epf 	enquireRec:count 	11239
attr interpolationmode  none
attr source  enquireRec
attr title  "Received Enquire message, count"
scalar SimpleRREQ.host[2].epf 	enquireSent:count 	537
attr interpolationmode  none
attr source  enquireSent
attr title  "Sent Enquire message, count"
scalar SimpleRREQ.host[2].epf 	rrep2Rec:count 	0
attr interpolationmode  none
attr source  rrep2Rec
attr title  "Received type 2 RREP, count"
scalar SimpleRREQ.host[2].epf 	rrep1Rec:count 	0
attr interpolationmode  none
attr source  rrep1Rec
attr title  "Received type 1 RREP, count"
scalar SimpleRREQ.host[2].epf 	rrepRec:count 	0
attr interpolationmode  none
attr source  rrepRec
attr title  "Received RREP, count"
scalar SimpleRREQ.host[2].epf 	rreq1Rec:count 	0
attr interpolationmode  none
attr source  rreq1Rec
attr title  "Received type 1 RREQ, count"
scalar SimpleRREQ.host[2].epf 	rreqRec:count 	0
attr interpolationmode  none
attr source  rreqRec
attr title  "Received RREQ, count"
scalar SimpleRREQ.host[2].epf 	rrepSent:count 	0
attr interpolationmode  none
attr source  rrepSent
attr title  "Sent RREP, count"
scalar SimpleRREQ.host[2].epf 	rreqSent:count 	0
attr interpolationmode  none
attr source  rreqSent
attr title  "Sent RREQ, count"
scalar SimpleRREQ.host[3].networkLayer.arp 	sentReply:count 	0
attr title  "ARP replies sent, count"
scalar SimpleRREQ.host[3].networkLayer.arp 	sentReq:count 	0
attr title  "ARP request sent, count"
scalar SimpleRREQ.host[3].networkLayer.arp 	failedARPResolution:count 	0
attr title  "ARP failed resolutions, count"
scalar SimpleRREQ.host[3].networkLayer.arp 	completedARPResolution:count 	0
attr title  "ARP completed resolutions, count"
scalar SimpleRREQ.host[3].networkLayer.arp 	initiatedARPResolution:count 	0
attr title  "ARP initiated resolutions, count"
scalar SimpleRREQ.host[3].lo0.lo 	droppedPkBitError:count 	0
attr interpolationmode  none
attr source  dropPkBitError
attr title  "packets dropped/bit error, count"
scalar SimpleRREQ.host[3].lo0.lo 	droppedPkBitError:sum(packetBytes) 	0
attr interpolationmode  none
attr source  dropPkBitError
attr title  "packets dropped/bit error, sum(packetBytes)"
scalar SimpleRREQ.host[3].lo0.lo 	rcvdPkFromHL:count 	0
attr interpolationmode  none
attr source  packetReceivedFromUpper
attr title  "packets received from higher layer, count"
scalar SimpleRREQ.host[3].lo0.lo 	rcvdPkFromHL:sum(packetBytes) 	0
attr interpolationmode  none
attr source  packetReceivedFromUpper
attr title  "packets received from higher layer, sum(packetBytes)"
scalar SimpleRREQ.host[3].lo0.lo 	passedUpPk:count 	0
attr interpolationmode  none
attr source  packetSentToUpper
attr title  "packets passed to higher layer, count"
scalar SimpleRREQ.host[3].lo0.lo 	passedUpPk:sum(packetBytes) 	0
attr interpolationmode  none
attr source  packetSentToUpper
attr title  "packets passed to higher layer, sum(packetBytes)"
scalar SimpleRREQ.host[3].wlan[0].queue 	queueLength:max 	3
attr interpolationmode  sample-hold
attr title  "queue length, max"
scalar SimpleRREQ.host[3].wlan[0].queue 	queueLength:timeavg 	0.0001243208599625
attr interpolationmode  sample-hold
attr title  "queue length, timeavg"
statistic SimpleRREQ.host[3].wlan[0].queue 	queueingTime:histogram
field count 12352
field mean 1.2077803752834e-005
field stddev 5.009009408975e-005
field sum 0.149185031955
field sqrsum 3.2790703001451e-005
field min 0
field max 0.000575809859
attr interpolationmode  none
attr title  "queueing time, histogram"
bin	-INF	0
bin	-9.5993341e-005	0
bin	-8.3194228866667e-005	0
bin	-7.0395116733333e-005	0
bin	-5.75960046e-005	0
bin	-4.4796892466667e-005	0
bin	-3.1997780333333e-005	0
bin	-1.91986682e-005	0
bin	-6.3995560666667e-006	11628
bin	6.3995560666667e-006	0
bin	1.91986682e-005	0
bin	3.1997780333333e-005	0
bin	4.4796892466667e-005	0
bin	5.75960046e-005	0
bin	7.0395116733333e-005	0
bin	8.3194228866667e-005	0
bin	9.5993341e-005	0
bin	0.00010879245313333	0
bin	0.00012159156526667	0
bin	0.0001343906774	0
bin	0.00014718978953333	0
bin	0.00015998890166667	0
bin	0.0001727880138	0
bin	0.00018558712593333	673
bin	0.00019838623806667	0
bin	0.0002111853502	0
bin	0.00022398446233333	0
bin	0.00023678357446667	0
bin	0.0002495826866	0
bin	0.00026238179873333	0
bin	0.00027518091086667	0
bin	0.000287980023	51
scalar SimpleRREQ.host[3].wlan[0].queue 	dropPk:count 	0
attr interpolationmode  none
attr source  dropPkByQueue
attr title  "dropped packets, count"
scalar SimpleRREQ.host[3].wlan[0].queue 	dropPk:sum(packetBytes) 	0
attr interpolationmode  none
attr source  dropPkByQueue
attr title  "dropped packets, sum(packetBytes)"
scalar SimpleRREQ.host[3].wlan[0].queue 	rcvdPk:count 	12352
attr interpolationmode  none
attr title  "received packets, count"
scalar SimpleRREQ.host[3].wlan[0].queue 	rcvdPk:sum(packetBytes) 	345856
attr interpolationmode  none
attr title  "received packets, sum(packetBytes)"
scalar SimpleRREQ.host[3].wlan[0].mac 	droppedPkNotForUs:count 	0
attr interpolationmode  none
attr source  dropPkNotForUs
attr title  "packets dropped/not for us, count"
scalar SimpleRREQ.host[3].wlan[0].mac 	droppedPkNotForUs:sum(packetBytes) 	0
attr interpolationmode  none
attr source  dropPkNotForUs
attr title  "packets dropped/not for us, sum(packetBytes)"
scalar SimpleRREQ.host[3].wlan[0].mac 	rcvdPkFromHL:count 	12352
attr interpolationmode  none
attr source  packetReceivedFromUpper
attr title  "packets received from higher layer, count"
scalar SimpleRREQ.host[3].wlan[0].mac 	rcvdPkFromHL:sum(packetBytes) 	345856
attr interpolationmode  none
attr source  packetReceivedFromUpper
attr title  "packets received from higher layer, sum(packetBytes)"
scalar SimpleRREQ.host[3].wlan[0].mac 	passedUpPk:count 	92637
attr interpolationmode  none
attr source  packetSentToUpper
attr title  "packets passed to higher layer, count"
scalar SimpleRREQ.host[3].wlan[0].mac 	passedUpPk:sum(packetBytes) 	2593836
attr interpolationmode  none
attr source  packetSentToUpper
attr title  "packets passed to higher layer, sum(packetBytes)"
scalar SimpleRREQ.host[3].wlan[0].mac 	rcvdPkFromLL:count 	92637
attr interpolationmode  none
attr source  packetReceivedFromLower
attr title  "packets received from lower layer, count"
scalar SimpleRREQ.host[3].wlan[0].mac 	rcvdPkFromLL:sum(packetBytes) 	4446576
attr interpolationmode  none
attr source  packetReceivedFromLower
attr title  "packets received from lower layer, sum(packetBytes)"
scalar SimpleRREQ.host[3].wlan[0].mac 	sentDownPk:count 	12352
attr interpolationmode  none
attr source  packetSentToLower
attr title  "packets sent to lower layer, count"
scalar SimpleRREQ.host[3].wlan[0].mac 	sentDownPk:sum(packetBytes) 	592896
attr interpolationmode  none
attr source  packetSentToLower
attr title  "packets sent to lower layer, sum(packetBytes)"
statistic SimpleRREQ.host[3].wlan[0].radio 	symbolErrorRate:histogram
field count 92637
field mean 0.52404546779365
field stddev 0.49942417639913
field sum 48546
field sqrsum 48546
field min 0
field max 1
attr source  symbolErrorRate
attr title  "Symbol error rate, histogram"
bin	-INF	0
bin	-1	0
bin	0	44091
bin	1	48546
bin	2	0
statistic SimpleRREQ.host[3].wlan[0].radio 	bitErrorRate:histogram
field count 92637
field mean 0.52404546779365
field stddev 0.49942417639913
field sum 48546
field sqrsum 48546
field min 0
field max 1
attr source  bitErrorRate
attr title  "Bit error rate, histogram"
bin	-INF	0
bin	-1	0
bin	0	44091
bin	1	48546
bin	2	0
statistic SimpleRREQ.host[3].wlan[0].radio 	packetErrorRate:histogram
field count 92637
field mean 0.52404546779365
field stddev 0.49942417639913
field sum 48546
field sqrsum 48546
field min 0
field max 1
attr source  packetErrorRate
attr title  "Packet error rate, histogram"
bin	-INF	0
bin	-1	0
bin	0	44091
bin	1	48546
bin	2	0
statistic SimpleRREQ.host[3].wlan[0].radio 	minSNIR:histogram
field count 92637
field mean nan
field stddev nan
field sum nan
field sqrsum nan
field min nan
field max nan
attr source  minSNIR
attr title  "Min SNIR, histogram"
bin	-INF	92637
bin	nan	0
bin	nan	0
bin	nan	0
bin	nan	0
bin	nan	0
bin	nan	0
bin	nan	0
bin	nan	0
bin	nan	0
bin	nan	0
bin	nan	0
bin	nan	0
bin	nan	0
bin	nan	0
bin	nan	0
bin	nan	0
bin	nan	0
bin	nan	0
bin	nan	0
bin	nan	0
bin	nan	0
bin	nan	0
bin	nan	0
bin	nan	0
bin	nan	0
bin	nan	0
bin	nan	0
bin	nan	0
bin	nan	0
bin	nan	0
bin	nan	0
scalar SimpleRREQ.host[3].wlan[0].radio 	transmissionState:count 	24704
attr interpolationmode  sample-hold
attr source  transmissionStateChanged
attr title  "Radio transmission state, count"
scalar SimpleRREQ.host[3].wlan[0].radio 	receptionState:count 	185276
attr interpolationmode  sample-hold
attr source  receptionStateChanged
attr title  "Radio reception state, count"
scalar SimpleRREQ.host[3].wlan[0].radio 	radioMode:count 	2
attr interpolationmode  sample-hold
attr source  radioModeChanged
attr title  "Radio mode, count"
scalar SimpleRREQ.host[3].pingApp[0] 	"Pings sent" 	1199
scalar SimpleRREQ.host[3].pingApp[0] 	"ping loss rate (%)" 	100
scalar SimpleRREQ.host[3].pingApp[0] 	"ping out-of-order rate (%)" 	0
scalar SimpleRREQ.host[3].pingApp[0] 	numOutOfOrderArrivals:last 	nan
attr interpolationmode  none
attr title  "ping out-of-order arrivals, last"
scalar SimpleRREQ.host[3].pingApp[0] 	pingRxSeq:count 	0
attr interpolationmode  none
attr title  "ping rx seq, count"
scalar SimpleRREQ.host[3].pingApp[0] 	pingTxSeq:count 	1199
attr interpolationmode  none
attr title  "ping tx seq, count"
scalar SimpleRREQ.host[3].pingApp[0] 	numLost:last 	nan
attr interpolationmode  none
attr title  "pings lost, last"
statistic SimpleRREQ.host[3].pingApp[0] 	rtt:histogram
field count 0
field mean nan
field stddev nan
field sum 0
field sqrsum 0
field min nan
field max nan
attr interpolationmode  none
attr title  "ping round-trip time, histogram"
attr unit  s
bin	-INF	0
bin	-0.5	0
bin	-0.46666666666667	0
bin	-0.43333333333333	0
bin	-0.4	0
bin	-0.36666666666667	0
bin	-0.33333333333333	0
bin	-0.3	0
bin	-0.26666666666667	0
bin	-0.23333333333333	0
bin	-0.2	0
bin	-0.16666666666667	0
bin	-0.13333333333333	0
bin	-0.1	0
bin	-0.066666666666667	0
bin	-0.033333333333333	0
bin	0	0
bin	0.033333333333333	0
bin	0.066666666666667	0
bin	0.1	0
bin	0.13333333333333	0
bin	0.16666666666667	0
bin	0.2	0
bin	0.23333333333333	0
bin	0.26666666666667	0
bin	0.3	0
bin	0.33333333333333	0
bin	0.36666666666667	0
bin	0.4	0
bin	0.43333333333333	0
bin	0.46666666666667	0
bin	0.5	0
scalar SimpleRREQ.host[3].epf 	dataFwd:count 	225
attr interpolationmode  none
attr source  dataFwd
attr title  "Forward Data message, count"
scalar SimpleRREQ.host[3].epf 	dataDest:count 	372
attr interpolationmode  none
attr source  dataDest
attr title  "Received Data message on Destination, count"
scalar SimpleRREQ.host[3].epf 	dataRec:count 	10569
attr interpolationmode  none
attr source  dataRec
attr title  "Received Data message, count"
scalar SimpleRREQ.host[3].epf 	dataSent:count 	549
attr interpolationmode  none
attr source  dataSent
attr title  "Sent Data message, count"
scalar SimpleRREQ.host[3].epf 	destResp:count 	351
attr interpolationmode  none
attr source  destResp
attr title  "Response from destination, count"
scalar SimpleRREQ.host[3].epf 	destEnq:count 	351
attr interpolationmode  none
attr source  destEnq
attr title  "Enquire to Destination, count"
scalar SimpleRREQ.host[3].epf 	respNOkRec:count 	2777
attr interpolationmode  none
attr source  respNOkRec
attr title  "Received Not Ok Response message, count"
scalar SimpleRREQ.host[3].epf 	respNOkSent:count 	4876
attr interpolationmode  none
attr source  respNOkSent
attr title  "Sent Not Ok Response message, count"
scalar SimpleRREQ.host[3].epf 	respOkRec:count 	549
attr interpolationmode  none
attr source  respOkRec
attr title  "Received Ok Response message, count"
scalar SimpleRREQ.host[3].epf 	respOkSent:count 	1418
attr interpolationmode  none
attr source  respOkSent
attr title  "Sent Ok Response message, count"
scalar SimpleRREQ.host[3].epf 	respRec:count 	70682
attr interpolationmode  none
attr source  respRec
attr title  "Received Response message, count"
scalar SimpleRREQ.host[3].epf 	respSent:count 	0
attr interpolationmode  none
attr source  respSent
attr title  "Sent Response message, count"
scalar SimpleRREQ.host[3].epf 	enquireRec:count 	10587
attr interpolationmode  none
attr source  enquireRec
attr title  "Received Enquire message, count"
scalar SimpleRREQ.host[3].epf 	enquireSent:count 	340
attr interpolationmode  none
attr source  enquireSent
attr title  "Sent Enquire message, count"
scalar SimpleRREQ.host[3].epf 	rrep2Rec:count 	0
attr interpolationmode  none
attr source  rrep2Rec
attr title  "Received type 2 RREP, count"
scalar SimpleRREQ.host[3].epf 	rrep1Rec:count 	0
attr interpolationmode  none
attr source  rrep1Rec
attr title  "Received type 1 RREP, count"
scalar SimpleRREQ.host[3].epf 	rrepRec:count 	0
attr interpolationmode  none
attr source  rrepRec
attr title  "Received RREP, count"
scalar SimpleRREQ.host[3].epf 	rreq1Rec:count 	0
attr interpolationmode  none
attr source  rreq1Rec
attr title  "Received type 1 RREQ, count"
scalar SimpleRREQ.host[3].epf 	rreqRec:count 	0
attr interpolationmode  none
attr source  rreqRec
attr title  "Received RREQ, count"
scalar SimpleRREQ.host[3].epf 	rrepSent:count 	0
attr interpolationmode  none
attr source  rrepSent
attr title  "Sent RREP, count"
scalar SimpleRREQ.host[3].epf 	rreqSent:count 	0
attr interpolationmode  none
attr source  rreqSent
attr title  "Sent RREQ, count"
scalar SimpleRREQ.host[4].networkLayer.arp 	sentReply:count 	0
attr title  "ARP replies sent, count"
scalar SimpleRREQ.host[4].networkLayer.arp 	sentReq:count 	0
attr title  "ARP request sent, count"
scalar SimpleRREQ.host[4].networkLayer.arp 	failedARPResolution:count 	0
attr title  "ARP failed resolutions, count"
scalar SimpleRREQ.host[4].networkLayer.arp 	completedARPResolution:count 	0
attr title  "ARP completed resolutions, count"
scalar SimpleRREQ.host[4].networkLayer.arp 	initiatedARPResolution:count 	0
attr title  "ARP initiated resolutions, count"
scalar SimpleRREQ.host[4].lo0.lo 	droppedPkBitError:count 	0
attr interpolationmode  none
attr source  dropPkBitError
attr title  "packets dropped/bit error, count"
scalar SimpleRREQ.host[4].lo0.lo 	droppedPkBitError:sum(packetBytes) 	0
attr interpolationmode  none
attr source  dropPkBitError
attr title  "packets dropped/bit error, sum(packetBytes)"
scalar SimpleRREQ.host[4].lo0.lo 	rcvdPkFromHL:count 	0
attr interpolationmode  none
attr source  packetReceivedFromUpper
attr title  "packets received from higher layer, count"
scalar SimpleRREQ.host[4].lo0.lo 	rcvdPkFromHL:sum(packetBytes) 	0
attr interpolationmode  none
attr source  packetReceivedFromUpper
attr title  "packets received from higher layer, sum(packetBytes)"
scalar SimpleRREQ.host[4].lo0.lo 	passedUpPk:count 	0
attr interpolationmode  none
attr source  packetSentToUpper
attr title  "packets passed to higher layer, count"
scalar SimpleRREQ.host[4].lo0.lo 	passedUpPk:sum(packetBytes) 	0
attr interpolationmode  none
attr source  packetSentToUpper
attr title  "packets passed to higher layer, sum(packetBytes)"
scalar SimpleRREQ.host[4].wlan[0].queue 	queueLength:max 	4
attr interpolationmode  sample-hold
attr title  "queue length, max"
scalar SimpleRREQ.host[4].wlan[0].queue 	queueLength:timeavg 	0.00013791112798667
attr interpolationmode  sample-hold
attr title  "queue length, timeavg"
statistic SimpleRREQ.host[4].wlan[0].queue 	queueingTime:histogram
field count 13406
field mean 1.2344722779651e-005
field stddev 5.2927552362866e-005
field sum 0.165493353584
field sqrsum 3.9594741909125e-005
field min 0
field max 0.000767778814
attr interpolationmode  none
attr title  "queueing time, histogram"
bin	-INF	0
bin	-0.0001918784505	0
bin	-0.0001662946571	0
bin	-0.0001407108637	0
bin	-0.0001151270703	0
bin	-8.95432769e-005	0
bin	-6.39594835e-005	0
bin	-3.83756901e-005	0
bin	-1.27918967e-005	12634
bin	1.27918967e-005	0
bin	3.83756901e-005	0
bin	6.39594835e-005	0
bin	8.95432769e-005	0
bin	0.0001151270703	0
bin	0.0001407108637	0
bin	0.0001662946571	473
bin	0.0001918784505	221
bin	0.0002174622439	0
bin	0.0002430460373	0
bin	0.0002686298307	0
bin	0.0002942136241	0
bin	0.0003197974175	0
bin	0.0003453812109	0
bin	0.0003709650043	68
bin	0.0003965487977	0
bin	0.0004221325911	0
bin	0.0004477163845	0
bin	0.0004733001779	0
bin	0.0004988839713	0
bin	0.0005244677647	0
bin	0.0005500515581	4
bin	0.0005756353515	6
scalar SimpleRREQ.host[4].wlan[0].queue 	dropPk:count 	0
attr interpolationmode  none
attr source  dropPkByQueue
attr title  "dropped packets, count"
scalar SimpleRREQ.host[4].wlan[0].queue 	dropPk:sum(packetBytes) 	0
attr interpolationmode  none
attr source  dropPkByQueue
attr title  "dropped packets, sum(packetBytes)"
scalar SimpleRREQ.host[4].wlan[0].queue 	rcvdPk:count 	13406
attr interpolationmode  none
attr title  "received packets, count"
scalar SimpleRREQ.host[4].wlan[0].queue 	rcvdPk:sum(packetBytes) 	375368
attr interpolationmode  none
attr title  "received packets, sum(packetBytes)"
scalar SimpleRREQ.host[4].wlan[0].mac 	droppedPkNotForUs:count 	0
attr interpolationmode  none
attr source  dropPkNotForUs
attr title  "packets dropped/not for us, count"
scalar SimpleRREQ.host[4].wlan[0].mac 	droppedPkNotForUs:sum(packetBytes) 	0
attr interpolationmode  none
attr source  dropPkNotForUs
attr title  "packets dropped/not for us, sum(packetBytes)"
scalar SimpleRREQ.host[4].wlan[0].mac 	rcvdPkFromHL:count 	13406
attr interpolationmode  none
attr source  packetReceivedFromUpper
attr title  "packets received from higher layer, count"
scalar SimpleRREQ.host[4].wlan[0].mac 	rcvdPkFromHL:sum(packetBytes) 	375368
attr interpolationmode  none
attr source  packetReceivedFromUpper
attr title  "packets received from higher layer, sum(packetBytes)"
scalar SimpleRREQ.host[4].wlan[0].mac 	passedUpPk:count 	92105
attr interpolationmode  none
attr source  packetSentToUpper
attr title  "packets passed to higher layer, count"
scalar SimpleRREQ.host[4].wlan[0].mac 	passedUpPk:sum(packetBytes) 	2578940
attr interpolationmode  none
attr source  packetSentToUpper
attr title  "packets passed to higher layer, sum(packetBytes)"
scalar SimpleRREQ.host[4].wlan[0].mac 	rcvdPkFromLL:count 	92105
attr interpolationmode  none
attr source  packetReceivedFromLower
attr title  "packets received from lower layer, count"
scalar SimpleRREQ.host[4].wlan[0].mac 	rcvdPkFromLL:sum(packetBytes) 	4421040
attr interpolationmode  none
attr source  packetReceivedFromLower
attr title  "packets received from lower layer, sum(packetBytes)"
scalar SimpleRREQ.host[4].wlan[0].mac 	sentDownPk:count 	13406
attr interpolationmode  none
attr source  packetSentToLower
attr title  "packets sent to lower layer, count"
scalar SimpleRREQ.host[4].wlan[0].mac 	sentDownPk:sum(packetBytes) 	643488
attr interpolationmode  none
attr source  packetSentToLower
attr title  "packets sent to lower layer, sum(packetBytes)"
statistic SimpleRREQ.host[4].wlan[0].radio 	symbolErrorRate:histogram
field count 92105
field mean 0.51066717333478
field stddev 0.49988891216004
field sum 47035
field sqrsum 47035
field min 0
field max 1
attr source  symbolErrorRate
attr title  "Symbol error rate, histogram"
bin	-INF	0
bin	-1	0
bin	0	45070
bin	1	47035
bin	2	0
statistic SimpleRREQ.host[4].wlan[0].radio 	bitErrorRate:histogram
field count 92105
field mean 0.51066717333478
field stddev 0.49988891216004
field sum 47035
field sqrsum 47035
field min 0
field max 1
attr source  bitErrorRate
attr title  "Bit error rate, histogram"
bin	-INF	0
bin	-1	0
bin	0	45070
bin	1	47035
bin	2	0
statistic SimpleRREQ.host[4].wlan[0].radio 	packetErrorRate:histogram
field count 92105
field mean 0.51066717333478
field stddev 0.49988891216004
field sum 47035
field sqrsum 47035
field min 0
field max 1
attr source  packetErrorRate
attr title  "Packet error rate, histogram"
bin	-INF	0
bin	-1	0
bin	0	45070
bin	1	47035
bin	2	0
statistic SimpleRREQ.host[4].wlan[0].radio 	minSNIR:histogram
field count 92105
field mean nan
field stddev nan
field sum nan
field sqrsum nan
field min nan
field max nan
attr source  minSNIR
attr title  "Min SNIR, histogram"
bin	-INF	92105
bin	nan	0
bin	nan	0
bin	nan	0
bin	nan	0
bin	nan	0
bin	nan	0
bin	nan	0
bin	nan	0
bin	nan	0
bin	nan	0
bin	nan	0
bin	nan	0
bin	nan	0
bin	nan	0
bin	nan	0
bin	nan	0
bin	nan	0
bin	nan	0
bin	nan	0
bin	nan	0
bin	nan	0
bin	nan	0
bin	nan	0
bin	nan	0
bin	nan	0
bin	nan	0
bin	nan	0
bin	nan	0
bin	nan	0
bin	nan	0
bin	nan	0
scalar SimpleRREQ.host[4].wlan[0].radio 	transmissionState:count 	26812
attr interpolationmode  sample-hold
attr source  transmissionStateChanged
attr title  "Radio transmission state, count"
scalar SimpleRREQ.host[4].wlan[0].radio 	receptionState:count 	184211
attr interpolationmode  sample-hold
attr source  receptionStateChanged
attr title  "Radio reception state, count"
scalar SimpleRREQ.host[4].wlan[0].radio 	radioMode:count 	2
attr interpolationmode  sample-hold
attr source  radioModeChanged
attr title  "Radio mode, count"
scalar SimpleRREQ.host[4].pingApp[0] 	"Pings sent" 	1196
scalar SimpleRREQ.host[4].pingApp[0] 	"ping loss rate (%)" 	100
scalar SimpleRREQ.host[4].pingApp[0] 	"ping out-of-order rate (%)" 	0
scalar SimpleRREQ.host[4].pingApp[0] 	numOutOfOrderArrivals:last 	nan
attr interpolationmode  none
attr title  "ping out-of-order arrivals, last"
scalar SimpleRREQ.host[4].pingApp[0] 	pingRxSeq:count 	0
attr interpolationmode  none
attr title  "ping rx seq, count"
scalar SimpleRREQ.host[4].pingApp[0] 	pingTxSeq:count 	1196
attr interpolationmode  none
attr title  "ping tx seq, count"
scalar SimpleRREQ.host[4].pingApp[0] 	numLost:last 	nan
attr interpolationmode  none
attr title  "pings lost, last"
statistic SimpleRREQ.host[4].pingApp[0] 	rtt:histogram
field count 0
field mean nan
field stddev nan
field sum 0
field sqrsum 0
field min nan
field max nan
attr interpolationmode  none
attr title  "ping round-trip time, histogram"
attr unit  s
bin	-INF	0
bin	-0.5	0
bin	-0.46666666666667	0
bin	-0.43333333333333	0
bin	-0.4	0
bin	-0.36666666666667	0
bin	-0.33333333333333	0
bin	-0.3	0
bin	-0.26666666666667	0
bin	-0.23333333333333	0
bin	-0.2	0
bin	-0.16666666666667	0
bin	-0.13333333333333	0
bin	-0.1	0
bin	-0.066666666666667	0
bin	-0.033333333333333	0
bin	0	0
bin	0.033333333333333	0
bin	0.066666666666667	0
bin	0.1	0
bin	0.13333333333333	0
bin	0.16666666666667	0
bin	0.2	0
bin	0.23333333333333	0
bin	0.26666666666667	0
bin	0.3	0
bin	0.33333333333333	0
bin	0.36666666666667	0
bin	0.4	0
bin	0.43333333333333	0
bin	0.46666666666667	0
bin	0.5	0
scalar SimpleRREQ.host[4].epf 	dataFwd:count 	329
attr interpolationmode  none
attr source  dataFwd
attr title  "Forward Data message, count"
scalar SimpleRREQ.host[4].epf 	dataDest:count 	414
attr interpolationmode  none
attr source  dataDest
attr title  "Received Data message on Destination, count"
scalar SimpleRREQ.host[4].epf 	dataRec:count 	12157
attr interpolationmode  none
attr source  dataRec
attr title  "Received Data message, count"
scalar SimpleRREQ.host[4].epf 	dataSent:count 	626
attr interpolationmode  none
attr source  dataSent
attr title  "Sent Data message, count"
scalar SimpleRREQ.host[4].epf 	destResp:count 	353
attr interpolationmode  none
attr source  destResp
attr title  "Response from destination, count"
scalar SimpleRREQ.host[4].epf 	destEnq:count 	353
attr interpolationmode  none
attr source  destEnq
attr title  "Enquire to Destination, count"
scalar SimpleRREQ.host[4].epf 	respNOkRec:count 	2802
attr interpolationmode  none
attr source  respNOkRec
attr title  "Received Not Ok Response message, count"
scalar SimpleRREQ.host[4].epf 	respNOkSent:count 	4317
attr interpolationmode  none
attr source  respNOkSent
attr title  "Sent Not Ok Response message, count"
scalar SimpleRREQ.host[4].epf 	respOkRec:count 	626
attr interpolationmode  none
attr source  respOkRec
attr title  "Received Ok Response message, count"
scalar SimpleRREQ.host[4].epf 	respOkSent:count 	2134
attr interpolationmode  none
attr source  respOkSent
attr title  "Sent Ok Response message, count"
scalar SimpleRREQ.host[4].epf 	respRec:count 	67767
attr interpolationmode  none
attr source  respRec
attr title  "Received Response message, count"
scalar SimpleRREQ.host[4].epf 	respSent:count 	0
attr interpolationmode  none
attr source  respSent
attr title  "Sent Response message, count"
scalar SimpleRREQ.host[4].epf 	enquireRec:count 	11382
attr interpolationmode  none
attr source  enquireRec
attr title  "Received Enquire message, count"
scalar SimpleRREQ.host[4].epf 	enquireSent:count 	500
attr interpolationmode  none
attr source  enquireSent
attr title  "Sent Enquire message, count"
scalar SimpleRREQ.host[4].epf 	rrep2Rec:count 	0
attr interpolationmode  none
attr source  rrep2Rec
attr title  "Received type 2 RREP, count"
scalar SimpleRREQ.host[4].epf 	rrep1Rec:count 	0
attr interpolationmode  none
attr source  rrep1Rec
attr title  "Received type 1 RREP, count"
scalar SimpleRREQ.host[4].epf 	rrepRec:count 	0
attr interpolationmode  none
attr source  rrepRec
attr title  "Received RREP, count"
scalar SimpleRREQ.host[4].epf 	rreq1Rec:count 	0
attr interpolationmode  none
attr source  rreq1Rec
attr title  "Received type 1 RREQ, count"
scalar SimpleRREQ.host[4].epf 	rreqRec:count 	0
attr interpolationmode  none
attr source  rreqRec
attr title  "Received RREQ, count"
scalar SimpleRREQ.host[4].epf 	rrepSent:count 	0
attr interpolationmode  none
attr source  rrepSent
attr title  "Sent RREP, count"
scalar SimpleRREQ.host[4].epf 	rreqSent:count 	0
attr interpolationmode  none
attr source  rreqSent
attr title  "Sent RREQ, count"
scalar SimpleRREQ.host[5].networkLayer.arp 	sentReply:count 	0
attr title  "ARP replies sent, count"
scalar SimpleRREQ.host[5].networkLayer.arp 	sentReq:count 	0
attr title  "ARP request sent, count"
scalar SimpleRREQ.host[5].networkLayer.arp 	failedARPResolution:count 	0
attr title  "ARP failed resolutions, count"
scalar SimpleRREQ.host[5].networkLayer.arp 	completedARPResolution:count 	0
attr title  "ARP completed resolutions, count"
scalar SimpleRREQ.host[5].networkLayer.arp 	initiatedARPResolution:count 	0
attr title  "ARP initiated resolutions, count"
scalar SimpleRREQ.host[5].lo0.lo 	droppedPkBitError:count 	0
attr interpolationmode  none
attr source  dropPkBitError
attr title  "packets dropped/bit error, count"
scalar SimpleRREQ.host[5].lo0.lo 	droppedPkBitError:sum(packetBytes) 	0
attr interpolationmode  none
attr source  dropPkBitError
attr title  "packets dropped/bit error, sum(packetBytes)"
scalar SimpleRREQ.host[5].lo0.lo 	rcvdPkFromHL:count 	0
attr interpolationmode  none
attr source  packetReceivedFromUpper
attr title  "packets received from higher layer, count"
scalar SimpleRREQ.host[5].lo0.lo 	rcvdPkFromHL:sum(packetBytes) 	0
attr interpolationmode  none
attr source  packetReceivedFromUpper
attr title  "packets received from higher layer, sum(packetBytes)"
scalar SimpleRREQ.host[5].lo0.lo 	passedUpPk:count 	0
attr interpolationmode  none
attr source  packetSentToUpper
attr title  "packets passed to higher layer, count"
scalar SimpleRREQ.host[5].lo0.lo 	passedUpPk:sum(packetBytes) 	0
attr interpolationmode  none
attr source  packetSentToUpper
attr title  "packets passed to higher layer, sum(packetBytes)"
scalar SimpleRREQ.host[5].wlan[0].queue 	queueLength:max 	3
attr interpolationmode  sample-hold
attr title  "queue length, max"
scalar SimpleRREQ.host[5].wlan[0].queue 	queueLength:timeavg 	0.00013201688298917
attr interpolationmode  sample-hold
attr title  "queue length, timeavg"
statistic SimpleRREQ.host[5].wlan[0].queue 	queueingTime:histogram
field count 12107
field mean 1.3085013594367e-005
field stddev 5.4273607376342e-005
field sum 0.158420259587
field sqrsum 3.7732660934525e-005
field min 0
field max 0.000575800901
attr interpolationmode  none
attr title  "queueing time, histogram"
bin	-INF	0
bin	-0.000191810561	0
bin	-0.00016623581953333	0
bin	-0.00014066107806667	0
bin	-0.0001150863366	0
bin	-8.9511595133333e-005	0
bin	-6.3936853666667e-005	0
bin	-3.83621122e-005	0
bin	-1.2787370733333e-005	11373
bin	1.2787370733333e-005	0
bin	3.83621122e-005	0
bin	6.3936853666667e-005	0
bin	8.9511595133333e-005	0
bin	0.0001150863366	0
bin	0.00014066107806667	0
bin	0.00016623581953333	330
bin	0.000191810561	320
bin	0.00021738530246667	0
bin	0.00024296004393333	0
bin	0.0002685347854	0
bin	0.00029410952686667	0
bin	0.00031968426833333	0
bin	0.0003452590098	0
bin	0.00037083375126667	76
bin	0.00039640849273333	0
bin	0.0004219832342	0
bin	0.00044755797566667	0
bin	0.00047313271713333	0
bin	0.0004987074586	0
bin	0.00052428220006667	0
bin	0.00054985694153333	2
bin	0.000575431683	6
scalar SimpleRREQ.host[5].wlan[0].queue 	dropPk:count 	0
attr interpolationmode  none
attr source  dropPkByQueue
attr title  "dropped packets, count"
scalar SimpleRREQ.host[5].wlan[0].queue 	dropPk:sum(packetBytes) 	0
attr interpolationmode  none
attr source  dropPkByQueue
attr title  "dropped packets, sum(packetBytes)"
scalar SimpleRREQ.host[5].wlan[0].queue 	rcvdPk:count 	12107
attr interpolationmode  none
attr title  "received packets, count"
scalar SimpleRREQ.host[5].wlan[0].queue 	rcvdPk:sum(packetBytes) 	338996
attr interpolationmode  none
attr title  "received packets, sum(packetBytes)"
scalar SimpleRREQ.host[5].wlan[0].mac 	droppedPkNotForUs:count 	0
attr interpolationmode  none
attr source  dropPkNotForUs
attr title  "packets dropped/not for us, count"
scalar SimpleRREQ.host[5].wlan[0].mac 	droppedPkNotForUs:sum(packetBytes) 	0
attr interpolationmode  none
attr source  dropPkNotForUs
attr title  "packets dropped/not for us, sum(packetBytes)"
scalar SimpleRREQ.host[5].wlan[0].mac 	rcvdPkFromHL:count 	12107
attr interpolationmode  none
attr source  packetReceivedFromUpper
attr title  "packets received from higher layer, count"
scalar SimpleRREQ.host[5].wlan[0].mac 	rcvdPkFromHL:sum(packetBytes) 	338996
attr interpolationmode  none
attr source  packetReceivedFromUpper
attr title  "packets received from higher layer, sum(packetBytes)"
scalar SimpleRREQ.host[5].wlan[0].mac 	passedUpPk:count 	90739
attr interpolationmode  none
attr source  packetSentToUpper
attr title  "packets passed to higher layer, count"
scalar SimpleRREQ.host[5].wlan[0].mac 	passedUpPk:sum(packetBytes) 	2540692
attr interpolationmode  none
attr source  packetSentToUpper
attr title  "packets passed to higher layer, sum(packetBytes)"
scalar SimpleRREQ.host[5].wlan[0].mac 	rcvdPkFromLL:count 	90739
attr interpolationmode  none
attr source  packetReceivedFromLower
attr title  "packets received from lower layer, count"
scalar SimpleRREQ.host[5].wlan[0].mac 	rcvdPkFromLL:sum(packetBytes) 	4355472
attr interpolationmode  none
attr source  packetReceivedFromLower
attr title  "packets received from lower layer, sum(packetBytes)"
scalar SimpleRREQ.host[5].wlan[0].mac 	sentDownPk:count 	12107
attr interpolationmode  none
attr source  packetSentToLower
attr title  "packets sent to lower layer, count"
scalar SimpleRREQ.host[5].wlan[0].mac 	sentDownPk:sum(packetBytes) 	581136
attr interpolationmode  none
attr source  packetSentToLower
attr title  "packets sent to lower layer, sum(packetBytes)"
statistic SimpleRREQ.host[5].wlan[0].radio 	symbolErrorRate:histogram
field count 90739
field mean 0.50531744894698
field stddev 0.49997447895902
field sum 45852
field sqrsum 45852
field min 0
field max 1
attr source  symbolErrorRate
attr title  "Symbol error rate, histogram"
bin	-INF	0
bin	-1	0
bin	0	44887
bin	1	45852
bin	2	0
statistic SimpleRREQ.host[5].wlan[0].radio 	bitErrorRate:histogram
field count 90739
field mean 0.50531744894698
field stddev 0.49997447895902
field sum 45852
field sqrsum 45852
field min 0
field max 1
attr source  bitErrorRate
attr title  "Bit error rate, histogram"
bin	-INF	0
bin	-1	0
bin	0	44887
bin	1	45852
bin	2	0
statistic SimpleRREQ.host[5].wlan[0].radio 	packetErrorRate:histogram
field count 90739
field mean 0.50531744894698
field stddev 0.49997447895902
field sum 45852
field sqrsum 45852
field min 0
field max 1
attr source  packetErrorRate
attr title  "Packet error rate, histogram"
bin	-INF	0
bin	-1	0
bin	0	44887
bin	1	45852
bin	2	0
statistic SimpleRREQ.host[5].wlan[0].radio 	minSNIR:histogram
field count 90739
field mean nan
field stddev nan
field sum nan
field sqrsum nan
field min nan
field max nan
attr source  minSNIR
attr title  "Min SNIR, histogram"
bin	-INF	90739
bin	nan	0
bin	nan	0
bin	nan	0
bin	nan	0
bin	nan	0
bin	nan	0
bin	nan	0
bin	nan	0
bin	nan	0
bin	nan	0
bin	nan	0
bin	nan	0
bin	nan	0
bin	nan	0
bin	nan	0
bin	nan	0
bin	nan	0
bin	nan	0
bin	nan	0
bin	nan	0
bin	nan	0
bin	nan	0
bin	nan	0
bin	nan	0
bin	nan	0
bin	nan	0
bin	nan	0
bin	nan	0
bin	nan	0
bin	nan	0
bin	nan	0
scalar SimpleRREQ.host[5].wlan[0].radio 	transmissionState:count 	24214
attr interpolationmode  sample-hold
attr source  transmissionStateChanged
attr title  "Radio transmission state, count"
scalar SimpleRREQ.host[5].wlan[0].radio 	receptionState:count 	181484
attr interpolationmode  sample-hold
attr source  receptionStateChanged
attr title  "Radio reception state, count"
scalar SimpleRREQ.host[5].wlan[0].radio 	radioMode:count 	2
attr interpolationmode  sample-hold
attr source  radioModeChanged
attr title  "Radio mode, count"
scalar SimpleRREQ.host[5].pingApp[0] 	"Pings sent" 	1199
scalar SimpleRREQ.host[5].pingApp[0] 	"ping loss rate (%)" 	100
scalar SimpleRREQ.host[5].pingApp[0] 	"ping out-of-order rate (%)" 	0
scalar SimpleRREQ.host[5].pingApp[0] 	numOutOfOrderArrivals:last 	nan
attr interpolationmode  none
attr title  "ping out-of-order arrivals, last"
scalar SimpleRREQ.host[5].pingApp[0] 	pingRxSeq:count 	0
attr interpolationmode  none
attr title  "ping rx seq, count"
scalar SimpleRREQ.host[5].pingApp[0] 	pingTxSeq:count 	1199
attr interpolationmode  none
attr title  "ping tx seq, count"
scalar SimpleRREQ.host[5].pingApp[0] 	numLost:last 	nan
attr interpolationmode  none
attr title  "pings lost, last"
statistic SimpleRREQ.host[5].pingApp[0] 	rtt:histogram
field count 0
field mean nan
field stddev nan
field sum 0
field sqrsum 0
field min nan
field max nan
attr interpolationmode  none
attr title  "ping round-trip time, histogram"
attr unit  s
bin	-INF	0
bin	-0.5	0
bin	-0.46666666666667	0
bin	-0.43333333333333	0
bin	-0.4	0
bin	-0.36666666666667	0
bin	-0.33333333333333	0
bin	-0.3	0
bin	-0.26666666666667	0
bin	-0.23333333333333	0
bin	-0.2	0
bin	-0.16666666666667	0
bin	-0.13333333333333	0
bin	-0.1	0
bin	-0.066666666666667	0
bin	-0.033333333333333	0
bin	0	0
bin	0.033333333333333	0
bin	0.066666666666667	0
bin	0.1	0
bin	0.13333333333333	0
bin	0.16666666666667	0
bin	0.2	0
bin	0.23333333333333	0
bin	0.26666666666667	0
bin	0.3	0
bin	0.33333333333333	0
bin	0.36666666666667	0
bin	0.4	0
bin	0.43333333333333	0
bin	0.46666666666667	0
bin	0.5	0
scalar SimpleRREQ.host[5].epf 	dataFwd:count 	149
attr interpolationmode  none
attr source  dataFwd
attr title  "Forward Data message, count"
scalar SimpleRREQ.host[5].epf 	dataDest:count 	313
attr interpolationmode  none
attr source  dataDest
attr title  "Received Data message on Destination, count"
scalar SimpleRREQ.host[5].epf 	dataRec:count 	9953
attr interpolationmode  none
attr source  dataRec
attr title  "Received Data message, count"
scalar SimpleRREQ.host[5].epf 	dataSent:count 	469
attr interpolationmode  none
attr source  dataSent
attr title  "Sent Data message, count"
scalar SimpleRREQ.host[5].epf 	destResp:count 	332
attr interpolationmode  none
attr source  destResp
attr title  "Response from destination, count"
scalar SimpleRREQ.host[5].epf 	destEnq:count 	332
attr interpolationmode  none
attr source  destEnq
attr title  "Enquire to Destination, count"
scalar SimpleRREQ.host[5].epf 	respNOkRec:count 	2304
attr interpolationmode  none
attr source  respNOkRec
attr title  "Received Not Ok Response message, count"
scalar SimpleRREQ.host[5].epf 	respNOkSent:count 	5663
attr interpolationmode  none
attr source  respNOkSent
attr title  "Sent Not Ok Response message, count"
scalar SimpleRREQ.host[5].epf 	respOkRec:count 	469
attr interpolationmode  none
attr source  respOkRec
attr title  "Received Ok Response message, count"
scalar SimpleRREQ.host[5].epf 	respOkSent:count 	1218
attr interpolationmode  none
attr source  respOkSent
attr title  "Sent Ok Response message, count"
scalar SimpleRREQ.host[5].epf 	respRec:count 	69491
attr interpolationmode  none
attr source  respRec
attr title  "Received Response message, count"
scalar SimpleRREQ.host[5].epf 	respSent:count 	0
attr interpolationmode  none
attr source  respSent
attr title  "Sent Response message, count"
scalar SimpleRREQ.host[5].epf 	enquireRec:count 	10496
attr interpolationmode  none
attr source  enquireRec
attr title  "Received Enquire message, count"
scalar SimpleRREQ.host[5].epf 	enquireSent:count 	248
attr interpolationmode  none
attr source  enquireSent
attr title  "Sent Enquire message, count"
scalar SimpleRREQ.host[5].epf 	rrep2Rec:count 	0
attr interpolationmode  none
attr source  rrep2Rec
attr title  "Received type 2 RREP, count"
scalar SimpleRREQ.host[5].epf 	rrep1Rec:count 	0
attr interpolationmode  none
attr source  rrep1Rec
attr title  "Received type 1 RREP, count"
scalar SimpleRREQ.host[5].epf 	rrepRec:count 	0
attr interpolationmode  none
attr source  rrepRec
attr title  "Received RREP, count"
scalar SimpleRREQ.host[5].epf 	rreq1Rec:count 	0
attr interpolationmode  none
attr source  rreq1Rec
attr title  "Received type 1 RREQ, count"
scalar SimpleRREQ.host[5].epf 	rreqRec:count 	0
attr interpolationmode  none
attr source  rreqRec
attr title  "Received RREQ, count"
scalar SimpleRREQ.host[5].epf 	rrepSent:count 	0
attr interpolationmode  none
attr source  rrepSent
attr title  "Sent RREP, count"
scalar SimpleRREQ.host[5].epf 	rreqSent:count 	0
attr interpolationmode  none
attr source  rreqSent
attr title  "Sent RREQ, count"
scalar SimpleRREQ.host[6].networkLayer.arp 	sentReply:count 	0
attr title  "ARP replies sent, count"
scalar SimpleRREQ.host[6].networkLayer.arp 	sentReq:count 	0
attr title  "ARP request sent, count"
scalar SimpleRREQ.host[6].networkLayer.arp 	failedARPResolution:count 	0
attr title  "ARP failed resolutions, count"
scalar SimpleRREQ.host[6].networkLayer.arp 	completedARPResolution:count 	0
attr title  "ARP completed resolutions, count"
scalar SimpleRREQ.host[6].networkLayer.arp 	initiatedARPResolution:count 	0
attr title  "ARP initiated resolutions, count"
scalar SimpleRREQ.host[6].lo0.lo 	droppedPkBitError:count 	0
attr interpolationmode  none
attr source  dropPkBitError
attr title  "packets dropped/bit error, count"
scalar SimpleRREQ.host[6].lo0.lo 	droppedPkBitError:sum(packetBytes) 	0
attr interpolationmode  none
attr source  dropPkBitError
attr title  "packets dropped/bit error, sum(packetBytes)"
scalar SimpleRREQ.host[6].lo0.lo 	rcvdPkFromHL:count 	0
attr interpolationmode  none
attr source  packetReceivedFromUpper
attr title  "packets received from higher layer, count"
scalar SimpleRREQ.host[6].lo0.lo 	rcvdPkFromHL:sum(packetBytes) 	0
attr interpolationmode  none
attr source  packetReceivedFromUpper
attr title  "packets received from higher layer, sum(packetBytes)"
scalar SimpleRREQ.host[6].lo0.lo 	passedUpPk:count 	0
attr interpolationmode  none
attr source  packetSentToUpper
attr title  "packets passed to higher layer, count"
scalar SimpleRREQ.host[6].lo0.lo 	passedUpPk:sum(packetBytes) 	0
attr interpolationmode  none
attr source  packetSentToUpper
attr title  "packets passed to higher layer, sum(packetBytes)"
scalar SimpleRREQ.host[6].wlan[0].queue 	queueLength:max 	3
attr interpolationmode  sample-hold
attr title  "queue length, max"
scalar SimpleRREQ.host[6].wlan[0].queue 	queueLength:timeavg 	0.0001155612303225
attr interpolationmode  sample-hold
attr title  "queue length, timeavg"
statistic SimpleRREQ.host[6].wlan[0].queue 	queueingTime:histogram
field count 12753
field mean 1.0873792549753e-005
field stddev 4.77888790673e-005
field sum 0.138673476387
field sqrsum 3.0630630440301e-005
field min 0
field max 0.000575800881
attr interpolationmode  none
attr title  "queueing time, histogram"
bin	-INF	0
bin	-9.59783395e-005	0
bin	-8.3181227566667e-005	0
bin	-7.0384115633333e-005	0
bin	-5.75870037e-005	0
bin	-4.4789891766667e-005	0
bin	-3.1992779833333e-005	0
bin	-1.91956679e-005	0
bin	-6.3985559666667e-006	12082
bin	6.3985559666667e-006	0
bin	1.91956679e-005	0
bin	3.1992779833333e-005	0
bin	4.4789891766667e-005	0
bin	5.75870037e-005	0
bin	7.0384115633333e-005	0
bin	8.3181227566667e-005	0
bin	9.59783395e-005	0
bin	0.00010877545143333	0
bin	0.00012157256336667	0
bin	0.0001343696753	0
bin	0.00014716678723333	0
bin	0.00015996389916667	0
bin	0.0001727610111	0
bin	0.00018555812303333	622
bin	0.00019835523496667	0
bin	0.0002111523469	0
bin	0.00022394945883333	0
bin	0.00023674657076667	0
bin	0.0002495436827	0
bin	0.00026234079463333	0
bin	0.00027513790656667	0
bin	0.0002879350185	49
scalar SimpleRREQ.host[6].wlan[0].queue 	dropPk:count 	0
attr interpolationmode  none
attr source  dropPkByQueue
attr title  "dropped packets, count"
scalar SimpleRREQ.host[6].wlan[0].queue 	dropPk:sum(packetBytes) 	0
attr interpolationmode  none
attr source  dropPkByQueue
attr title  "dropped packets, sum(packetBytes)"
scalar SimpleRREQ.host[6].wlan[0].queue 	rcvdPk:count 	12753
attr interpolationmode  none
attr title  "received packets, count"
scalar SimpleRREQ.host[6].wlan[0].queue 	rcvdPk:sum(packetBytes) 	357084
attr interpolationmode  none
attr title  "received packets, sum(packetBytes)"
scalar SimpleRREQ.host[6].wlan[0].mac 	droppedPkNotForUs:count 	0
attr interpolationmode  none
attr source  dropPkNotForUs
attr title  "packets dropped/not for us, count"
scalar SimpleRREQ.host[6].wlan[0].mac 	droppedPkNotForUs:sum(packetBytes) 	0
attr interpolationmode  none
attr source  dropPkNotForUs
[...]
attr title  "packets passed to higher layer, count"
scalar SimpleRREQ.host[28].wlan[0].mac 	passedUpPk:sum(packetBytes) 	2734592
attr interpolationmode  none
attr source  packetSentToUpper
attr title  "packets passed to higher layer, sum(packetBytes)"
scalar SimpleRREQ.host[28].wlan[0].mac 	rcvdPkFromLL:count 	97664
attr interpolationmode  none
attr source  packetReceivedFromLower
attr title  "packets received from lower layer, count"
scalar SimpleRREQ.host[28].wlan[0].mac 	rcvdPkFromLL:sum(packetBytes) 	4687872
attr interpolationmode  none
attr source  packetReceivedFromLower
attr title  "packets received from lower layer, sum(packetBytes)"
scalar SimpleRREQ.host[28].wlan[0].mac 	sentDownPk:count 	13724
attr interpolationmode  none
attr source  packetSentToLower
attr title  "packets sent to lower layer, count"
scalar SimpleRREQ.host[28].wlan[0].mac 	sentDownPk:sum(packetBytes) 	658752
attr interpolationmode  none
attr source  packetSentToLower
attr title  "packets sent to lower layer, sum(packetBytes)"
statistic SimpleRREQ.host[28].wlan[0].radio 	symbolErrorRate:histogram
field count 97664
field mean 0.53773140563565
field stddev 0.49857686094981
field sum 52517
field sqrsum 52517
field min 0
field max 1
attr source  symbolErrorRate
attr title  "Symbol error rate, histogram"
bin	-INF	0
bin	-1	0
bin	0	45147
bin	1	52517
bin	2	0
statistic SimpleRREQ.host[28].wlan[0].radio 	bitErrorRate:histogram
field count 97664
field mean 0.53773140563565
field stddev 0.49857686094981
field sum 52517
field sqrsum 52517
field min 0
field max 1
attr source  bitErrorRate
attr title  "Bit error rate, histogram"
bin	-INF	0
bin	-1	0
bin	0	45147
bin	1	52517
bin	2	0
statistic SimpleRREQ.host[28].wlan[0].radio 	packetErrorRate:histogram
field count 97664
field mean 0.53773140563565
field stddev 0.49857686094981
field sum 52517
field sqrsum 52517
field min 0
field max 1
attr source  packetErrorRate
attr title  "Packet error rate, histogram"
bin	-INF	0
bin	-1	0
bin	0	45147
bin	1	52517
bin	2	0
statistic SimpleRREQ.host[28].wlan[0].radio 	minSNIR:histogram
field count 97664
field mean nan
field stddev nan
field sum nan
field sqrsum nan
field min nan
field max nan
attr source  minSNIR
attr title  "Min SNIR, histogram"
bin	-INF	97664
bin	nan	0
bin	nan	0
bin	nan	0
bin	nan	0
bin	nan	0
bin	nan	0
bin	nan	0
bin	nan	0
bin	nan	0
bin	nan	0
bin	nan	0
bin	nan	0
bin	nan	0
bin	nan	0
bin	nan	0
bin	nan	0
bin	nan	0
bin	nan	0
bin	nan	0
bin	nan	0
bin	nan	0
bin	nan	0
bin	nan	0
bin	nan	0
bin	nan	0
bin	nan	0
bin	nan	0
bin	nan	0
bin	nan	0
bin	nan	0
bin	nan	0
scalar SimpleRREQ.host[28].wlan[0].radio 	transmissionState:count 	27448
attr interpolationmode  sample-hold
attr source  transmissionStateChanged
attr title  "Radio transmission state, count"
scalar SimpleRREQ.host[28].wlan[0].radio 	receptionState:count 	195330
attr interpolationmode  sample-hold
attr source  receptionStateChanged
attr title  "Radio reception state, count"
scalar SimpleRREQ.host[28].wlan[0].radio 	radioMode:count 	2
attr interpolationmode  sample-hold
attr source  radioModeChanged
attr title  "Radio mode, count"
scalar SimpleRREQ.host[28].pingApp[0] 	"Pings sent" 	1197
scalar SimpleRREQ.host[28].pingApp[0] 	"ping loss rate (%)" 	100
scalar SimpleRREQ.host[28].pingApp[0] 	"ping out-of-order rate (%)" 	0
scalar SimpleRREQ.host[28].pingApp[0] 	numOutOfOrderArrivals:last 	nan
attr interpolationmode  none
attr title  "ping out-of-order arrivals, last"
scalar SimpleRREQ.host[28].pingApp[0] 	pingRxSeq:count 	0
attr interpolationmode  none
attr title  "ping rx seq, count"
scalar SimpleRREQ.host[28].pingApp[0] 	pingTxSeq:count 	1197
attr interpolationmode  none
attr title  "ping tx seq, count"
scalar SimpleRREQ.host[28].pingApp[0] 	numLost:last 	nan
attr interpolationmode  none
attr title  "pings lost, last"
statistic SimpleRREQ.host[28].pingApp[0] 	rtt:histogram
field count 0
field mean nan
field stddev nan
field sum 0
field sqrsum 0
field min nan
field max nan
attr interpolationmode  none
attr title  "ping round-trip time, histogram"
attr unit  s
bin	-INF	0
bin	-0.5	0
bin	-0.46666666666667	0
bin	-0.43333333333333	0
bin	-0.4	0
bin	-0.36666666666667	0
bin	-0.33333333333333	0
bin	-0.3	0
bin	-0.26666666666667	0
bin	-0.23333333333333	0
bin	-0.2	0
bin	-0.16666666666667	0
bin	-0.13333333333333	0
bin	-0.1	0
bin	-0.066666666666667	0
bin	-0.033333333333333	0
bin	0	0
bin	0.033333333333333	0
bin	0.066666666666667	0
bin	0.1	0
bin	0.13333333333333	0
bin	0.16666666666667	0
bin	0.2	0
bin	0.23333333333333	0
bin	0.26666666666667	0
bin	0.3	0
bin	0.33333333333333	0
bin	0.36666666666667	0
bin	0.4	0
bin	0.43333333333333	0
bin	0.46666666666667	0
bin	0.5	0
scalar SimpleRREQ.host[28].epf 	dataFwd:count 	262
attr interpolationmode  none
attr source  dataFwd
attr title  "Forward Data message, count"
scalar SimpleRREQ.host[28].epf 	dataDest:count 	417
attr interpolationmode  none
attr source  dataDest
attr title  "Received Data message on Destination, count"
scalar SimpleRREQ.host[28].epf 	dataRec:count 	12156
attr interpolationmode  none
attr source  dataRec
attr title  "Received Data message, count"
scalar SimpleRREQ.host[28].epf 	dataSent:count 	423
attr interpolationmode  none
attr source  dataSent
attr title  "Sent Data message, count"
scalar SimpleRREQ.host[28].epf 	destResp:count 	355
attr interpolationmode  none
attr source  destResp
attr title  "Response from destination, count"
scalar SimpleRREQ.host[28].epf 	destEnq:count 	355
attr interpolationmode  none
attr source  destEnq
attr title  "Enquire to Destination, count"
scalar SimpleRREQ.host[28].epf 	respNOkRec:count 	3075
attr interpolationmode  none
attr source  respNOkRec
attr title  "Received Not Ok Response message, count"
scalar SimpleRREQ.host[28].epf 	respNOkSent:count 	5553
attr interpolationmode  none
attr source  respNOkSent
attr title  "Sent Not Ok Response message, count"
scalar SimpleRREQ.host[28].epf 	respOkRec:count 	423
attr interpolationmode  none
attr source  respOkRec
attr title  "Received Ok Response message, count"
scalar SimpleRREQ.host[28].epf 	respOkSent:count 	1838
attr interpolationmode  none
attr source  respOkSent
attr title  "Sent Ok Response message, count"
scalar SimpleRREQ.host[28].epf 	respRec:count 	72773
attr interpolationmode  none
attr source  respRec
attr title  "Received Response message, count"
scalar SimpleRREQ.host[28].epf 	respSent:count 	0
attr interpolationmode  none
attr source  respSent
attr title  "Sent Response message, count"
scalar SimpleRREQ.host[28].epf 	enquireRec:count 	11776
attr interpolationmode  none
attr source  enquireRec
attr title  "Received Enquire message, count"
scalar SimpleRREQ.host[28].epf 	enquireSent:count 	493
attr interpolationmode  none
attr source  enquireSent
attr title  "Sent Enquire message, count"
scalar SimpleRREQ.host[28].epf 	rrep2Rec:count 	0
attr interpolationmode  none
attr source  rrep2Rec
attr title  "Received type 2 RREP, count"
scalar SimpleRREQ.host[28].epf 	rrep1Rec:count 	0
attr interpolationmode  none
attr source  rrep1Rec
attr title  "Received type 1 RREP, count"
scalar SimpleRREQ.host[28].epf 	rrepRec:count 	0
attr interpolationmode  none
attr source  rrepRec
attr title  "Received RREP, count"
scalar SimpleRREQ.host[28].epf 	rreq1Rec:count 	0
attr interpolationmode  none
attr source  rreq1Rec
attr title  "Received type 1 RREQ, count"
scalar SimpleRREQ.host[28].epf 	rreqRec:count 	0
attr interpolationmode  none
attr source  rreqRec
attr title  "Received RREQ, count"
scalar SimpleRREQ.host[28].epf 	rrepSent:count 	0
attr interpolationmode  none
attr source  rrepSent
attr title  "Sent RREP, count"
scalar SimpleRREQ.host[28].epf 	rreqSent:count 	0
attr interpolationmode  none
attr source  rreqSent
attr title  "Sent RREQ, count"
scalar SimpleRREQ.host[29].networkLayer.arp 	sentReply:count 	0
attr title  "ARP replies sent, count"
scalar SimpleRREQ.host[29].networkLayer.arp 	sentReq:count 	0
attr title  "ARP request sent, count"
scalar SimpleRREQ.host[29].networkLayer.arp 	failedARPResolution:count 	0
attr title  "ARP failed resolutions, count"
scalar SimpleRREQ.host[29].networkLayer.arp 	completedARPResolution:count 	0
attr title  "ARP completed resolutions, count"
scalar SimpleRREQ.host[29].networkLayer.arp 	initiatedARPResolution:count 	0
attr title  "ARP initiated resolutions, count"
scalar SimpleRREQ.host[29].lo0.lo 	droppedPkBitError:count 	0
attr interpolationmode  none
attr source  dropPkBitError
attr title  "packets dropped/bit error, count"
scalar SimpleRREQ.host[29].lo0.lo 	droppedPkBitError:sum(packetBytes) 	0
attr interpolationmode  none
attr source  dropPkBitError
attr title  "packets dropped/bit error, sum(packetBytes)"
scalar SimpleRREQ.host[29].lo0.lo 	rcvdPkFromHL:count 	0
attr interpolationmode  none
attr source  packetReceivedFromUpper
attr title  "packets received from higher layer, count"
scalar SimpleRREQ.host[29].lo0.lo 	rcvdPkFromHL:sum(packetBytes) 	0
attr interpolationmode  none
attr source  packetReceivedFromUpper
attr title  "packets received from higher layer, sum(packetBytes)"
scalar SimpleRREQ.host[29].lo0.lo 	passedUpPk:count 	0
attr interpolationmode  none
attr source  packetSentToUpper
attr title  "packets passed to higher layer, count"
scalar SimpleRREQ.host[29].lo0.lo 	passedUpPk:sum(packetBytes) 	0
attr interpolationmode  none
attr source  packetSentToUpper
attr title  "packets passed to higher layer, sum(packetBytes)"
scalar SimpleRREQ.host[29].wlan[0].queue 	queueLength:max 	3
attr interpolationmode  sample-hold
attr title  "queue length, max"
scalar SimpleRREQ.host[29].wlan[0].queue 	queueLength:timeavg 	0.00013151438295583
attr interpolationmode  sample-hold
attr title  "queue length, timeavg"
statistic SimpleRREQ.host[29].wlan[0].queue 	queueingTime:histogram
field count 12964
field mean 1.2173500427877e-005
field stddev 5.025577877999e-005
field sum 0.157817259547
field sqrsum 3.4661102584675e-005
field min 0
field max 0.000575721226
attr interpolationmode  none
attr title  "queueing time, histogram"
bin	-INF	0
bin	-0.0001919235365	0
bin	-0.00016633373163333	0
bin	-0.00014074392676667	0
bin	-0.0001151541219	0
bin	-8.9564317033333e-005	0
bin	-6.3974512166667e-005	0
bin	-3.83847073e-005	0
bin	-1.2794902433333e-005	12198
bin	1.2794902433333e-005	0
bin	3.83847073e-005	0
bin	6.3974512166667e-005	0
bin	8.9564317033333e-005	0
bin	0.0001151541219	0
bin	0.00014074392676667	0
bin	0.00016633373163333	587
bin	0.0001919235365	125
bin	0.00021751334136667	0
bin	0.00024310314623333	0
bin	0.0002686929511	0
bin	0.00029428275596667	0
bin	0.00031987256083333	0
bin	0.0003454623657	0
bin	0.00037105217056667	51
bin	0.00039664197543333	0
bin	0.0004222317803	0
bin	0.00044782158516667	0
bin	0.00047341139003333	0
bin	0.0004990011949	0
bin	0.00052459099976667	0
bin	0.00055018080463333	3
bin	0.0005757706095	0
scalar SimpleRREQ.host[29].wlan[0].queue 	dropPk:count 	0
attr interpolationmode  none
attr source  dropPkByQueue
attr title  "dropped packets, count"
scalar SimpleRREQ.host[29].wlan[0].queue 	dropPk:sum(packetBytes) 	0
attr interpolationmode  none
attr source  dropPkByQueue
attr title  "dropped packets, sum(packetBytes)"
scalar SimpleRREQ.host[29].wlan[0].queue 	rcvdPk:count 	12964
attr interpolationmode  none
attr title  "received packets, count"
scalar SimpleRREQ.host[29].wlan[0].queue 	rcvdPk:sum(packetBytes) 	362992
attr interpolationmode  none
attr title  "received packets, sum(packetBytes)"
scalar SimpleRREQ.host[29].wlan[0].mac 	droppedPkNotForUs:count 	0
attr interpolationmode  none
attr source  dropPkNotForUs
attr title  "packets dropped/not for us, count"
scalar SimpleRREQ.host[29].wlan[0].mac 	droppedPkNotForUs:sum(packetBytes) 	0
attr interpolationmode  none
attr source  dropPkNotForUs
attr title  "packets dropped/not for us, sum(packetBytes)"
scalar SimpleRREQ.host[29].wlan[0].mac 	rcvdPkFromHL:count 	12964
attr interpolationmode  none
attr source  packetReceivedFromUpper
attr title  "packets received from higher layer, count"
scalar SimpleRREQ.host[29].wlan[0].mac 	rcvdPkFromHL:sum(packetBytes) 	362992
attr interpolationmode  none
attr source  packetReceivedFromUpper
attr title  "packets received from higher layer, sum(packetBytes)"
scalar SimpleRREQ.host[29].wlan[0].mac 	passedUpPk:count 	95739
attr interpolationmode  none
attr source  packetSentToUpper
attr title  "packets passed to higher layer, count"
scalar SimpleRREQ.host[29].wlan[0].mac 	passedUpPk:sum(packetBytes) 	2680692
attr interpolationmode  none
attr source  packetSentToUpper
attr title  "packets passed to higher layer, sum(packetBytes)"
scalar SimpleRREQ.host[29].wlan[0].mac 	rcvdPkFromLL:count 	95739
attr interpolationmode  none
attr source  packetReceivedFromLower
attr title  "packets received from lower layer, count"
scalar SimpleRREQ.host[29].wlan[0].mac 	rcvdPkFromLL:sum(packetBytes) 	4595472
attr interpolationmode  none
attr source  packetReceivedFromLower
attr title  "packets received from lower layer, sum(packetBytes)"
scalar SimpleRREQ.host[29].wlan[0].mac 	sentDownPk:count 	12964
attr interpolationmode  none
attr source  packetSentToLower
attr title  "packets sent to lower layer, count"
scalar SimpleRREQ.host[29].wlan[0].mac 	sentDownPk:sum(packetBytes) 	622272
attr interpolationmode  none
attr source  packetSentToLower
attr title  "packets sent to lower layer, sum(packetBytes)"
statistic SimpleRREQ.host[29].wlan[0].radio 	symbolErrorRate:histogram
field count 95739
field mean 0.53151798117799
field stddev 0.49900823418028
field sum 50887
field sqrsum 50887
field min 0
field max 1
attr source  symbolErrorRate
attr title  "Symbol error rate, histogram"
bin	-INF	0
bin	-1	0
bin	0	44852
bin	1	50887
bin	2	0
statistic SimpleRREQ.host[29].wlan[0].radio 	bitErrorRate:histogram
field count 95739
field mean 0.53151798117799
field stddev 0.49900823418028
field sum 50887
field sqrsum 50887
field min 0
field max 1
attr source  bitErrorRate
attr title  "Bit error rate, histogram"
bin	-INF	0
bin	-1	0
bin	0	44852
bin	1	50887
bin	2	0
statistic SimpleRREQ.host[29].wlan[0].radio 	packetErrorRate:histogram
field count 95739
field mean 0.53151798117799
field stddev 0.49900823418028
field sum 50887
field sqrsum 50887
field min 0
field max 1
attr source  packetErrorRate
attr title  "Packet error rate, histogram"
bin	-INF	0
bin	-1	0
bin	0	44852
bin	1	50887
bin	2	0
statistic SimpleRREQ.host[29].wlan[0].radio 	minSNIR:histogram
field count 95739
field mean nan
field stddev nan
field sum nan
field sqrsum nan
field min nan
field max nan
attr source  minSNIR
attr title  "Min SNIR, histogram"
bin	-INF	95739
bin	nan	0
bin	nan	0
bin	nan	0
bin	nan	0
bin	nan	0
bin	nan	0
bin	nan	0
bin	nan	0
bin	nan	0
bin	nan	0
bin	nan	0
bin	nan	0
bin	nan	0
bin	nan	0
bin	nan	0
bin	nan	0
bin	nan	0
bin	nan	0
bin	nan	0
bin	nan	0
bin	nan	0
bin	nan	0
bin	nan	0
bin	nan	0
bin	nan	0
bin	nan	0
bin	nan	0
bin	nan	0
bin	nan	0
bin	nan	0
bin	nan	0
scalar SimpleRREQ.host[29].wlan[0].radio 	transmissionState:count 	25928
attr interpolationmode  sample-hold
attr source  transmissionStateChanged
attr title  "Radio transmission state, count"
scalar SimpleRREQ.host[29].wlan[0].radio 	receptionState:count 	191482
attr interpolationmode  sample-hold
attr source  receptionStateChanged
attr title  "Radio reception state, count"
scalar SimpleRREQ.host[29].wlan[0].radio 	radioMode:count 	2
attr interpolationmode  sample-hold
attr source  radioModeChanged
attr title  "Radio mode, count"
scalar SimpleRREQ.host[29].pingApp[0] 	"Pings sent" 	1197
scalar SimpleRREQ.host[29].pingApp[0] 	"ping loss rate (%)" 	100
scalar SimpleRREQ.host[29].pingApp[0] 	"ping out-of-order rate (%)" 	0
scalar SimpleRREQ.host[29].pingApp[0] 	numOutOfOrderArrivals:last 	nan
attr interpolationmode  none
attr title  "ping out-of-order arrivals, last"
scalar SimpleRREQ.host[29].pingApp[0] 	pingRxSeq:count 	0
attr interpolationmode  none
attr title  "ping rx seq, count"
scalar SimpleRREQ.host[29].pingApp[0] 	pingTxSeq:count 	1197
attr interpolationmode  none
attr title  "ping tx seq, count"
scalar SimpleRREQ.host[29].pingApp[0] 	numLost:last 	nan
attr interpolationmode  none
attr title  "pings lost, last"
statistic SimpleRREQ.host[29].pingApp[0] 	rtt:histogram
field count 0
field mean nan
field stddev nan
field sum 0
field sqrsum 0
field min nan
field max nan
attr interpolationmode  none
attr title  "ping round-trip time, histogram"
attr unit  s
bin	-INF	0
bin	-0.5	0
bin	-0.46666666666667	0
bin	-0.43333333333333	0
bin	-0.4	0
bin	-0.36666666666667	0
bin	-0.33333333333333	0
bin	-0.3	0
bin	-0.26666666666667	0
bin	-0.23333333333333	0
bin	-0.2	0
bin	-0.16666666666667	0
bin	-0.13333333333333	0
bin	-0.1	0
bin	-0.066666666666667	0
bin	-0.033333333333333	0
bin	0	0
bin	0.033333333333333	0
bin	0.066666666666667	0
bin	0.1	0
bin	0.13333333333333	0
bin	0.16666666666667	0
bin	0.2	0
bin	0.23333333333333	0
bin	0.26666666666667	0
bin	0.3	0
bin	0.33333333333333	0
bin	0.36666666666667	0
bin	0.4	0
bin	0.43333333333333	0
bin	0.46666666666667	0
bin	0.5	0
scalar SimpleRREQ.host[29].epf 	dataFwd:count 	200
attr interpolationmode  none
attr source  dataFwd
attr title  "Forward Data message, count"
scalar SimpleRREQ.host[29].epf 	dataDest:count 	305
attr interpolationmode  none
attr source  dataDest
attr title  "Received Data message on Destination, count"
scalar SimpleRREQ.host[29].epf 	dataRec:count 	11552
attr interpolationmode  none
attr source  dataRec
attr title  "Received Data message, count"
scalar SimpleRREQ.host[29].epf 	dataSent:count 	335
attr interpolationmode  none
attr source  dataSent
attr title  "Sent Data message, count"
scalar SimpleRREQ.host[29].epf 	destResp:count 	306
attr interpolationmode  none
attr source  destResp
attr title  "Response from destination, count"
scalar SimpleRREQ.host[29].epf 	destEnq:count 	306
attr interpolationmode  none
attr source  destEnq
attr title  "Enquire to Destination, count"
scalar SimpleRREQ.host[29].epf 	respNOkRec:count 	2079
attr interpolationmode  none
attr source  respNOkRec
attr title  "Received Not Ok Response message, count"
scalar SimpleRREQ.host[29].epf 	respNOkSent:count 	5731
attr interpolationmode  none
attr source  respNOkSent
attr title  "Sent Not Ok Response message, count"
scalar SimpleRREQ.host[29].epf 	respOkRec:count 	335
attr interpolationmode  none
attr source  respOkRec
attr title  "Received Ok Response message, count"
scalar SimpleRREQ.host[29].epf 	respOkSent:count 	1246
attr interpolationmode  none
attr source  respOkSent
attr title  "Sent Ok Response message, count"
scalar SimpleRREQ.host[29].epf 	respRec:count 	71959
attr interpolationmode  none
attr source  respRec
attr title  "Received Response message, count"
scalar SimpleRREQ.host[29].epf 	respSent:count 	0
attr interpolationmode  none
attr source  respSent
attr title  "Sent Response message, count"
scalar SimpleRREQ.host[29].epf 	enquireRec:count 	11269
attr interpolationmode  none
attr source  enquireRec
attr title  "Received Enquire message, count"
scalar SimpleRREQ.host[29].epf 	enquireSent:count 	308
attr interpolationmode  none
attr source  enquireSent
attr title  "Sent Enquire message, count"
scalar SimpleRREQ.host[29].epf 	rrep2Rec:count 	0
attr interpolationmode  none
attr source  rrep2Rec
attr title  "Received type 2 RREP, count"
scalar SimpleRREQ.host[29].epf 	rrep1Rec:count 	0
attr interpolationmode  none
attr source  rrep1Rec
attr title  "Received type 1 RREP, count"
scalar SimpleRREQ.host[29].epf 	rrepRec:count 	0
attr interpolationmode  none
attr source  rrepRec
attr title  "Received RREP, count"
scalar SimpleRREQ.host[29].epf 	rreq1Rec:count 	0
attr interpolationmode  none
attr source  rreq1Rec
attr title  "Received type 1 RREQ, count"
scalar SimpleRREQ.host[29].epf 	rreqRec:count 	0
attr interpolationmode  none
attr source  rreqRec
attr title  "Received RREQ, count"
scalar SimpleRREQ.host[29].epf 	rrepSent:count 	0
attr interpolationmode  none
attr source  rrepSent
attr title  "Sent RREP, count"
scalar SimpleRREQ.host[29].epf 	rreqSent:count 	0
attr interpolationmode  none
attr source  rreqSent
attr title  "Sent RREQ, count"
