version 2
run SimpleRREQ-9-20161209-15:41:14-10464
attr configname SimpleRREQ
attr datetime 20161209-15:41:14
attr experiment SimpleRREQ
attr inifile omnetpp.ini
attr iterationvars "$0=\"./movements/RandomWaypoint—0-100-0.5.movements\""
attr iterationvars2 "$0=\"./movements/RandomWaypoint—0-100-0.5.movements\", $repetition=9"
attr measurement "$0=\"./movements/RandomWaypoint—0-100-0.5.movements\""
attr network SimpleRREQ
attr processid 10464
attr repetition 9
attr replication #9
attr resultdir results
attr runnumber 9
attr seedset 9
param **.hasStatus true
param **.host[*].mobility.nodeId -1
param **.host[*].mobility.traceFile "${\"./movements/RandomWaypoint—0-100-0.5.movements\"}"
param **.host[*].mobilityType "\"BonnMotionMobility\""
param **.host[*].numPingApps 1
param **.host[*].pingApp[0].destAddr "\"host[0](ipv4)\""
param **.host[*].pingApp[0].printPing true
param **.host[*].pingApp[0].startTime uniform(1s,5s)
param **.mobility.constraintAreaMaxX 600m
param **.mobility.constraintAreaMaxY 600m
param **.mobility.constraintAreaMaxZ 0m
param **.mobility.constraintAreaMinX 0m
param **.mobility.constraintAreaMinY 0m
param **.mobility.constraintAreaMinZ 0m
param **.trickle.Imax 20s
param **.trickle.Imin 10s
param **.trickle.MaxMessages 5
param **.wlan[*].bitrate 2Mbps
param **.wlan[*].mac.address "\"auto\""
param **.wlan[*].mac.cwMinData 7
param **.wlan[*].mac.cwMinMulticast 31
param **.wlan[*].mac.headerLength 20B
param **.wlan[*].mac.maxQueueSize 14
param **.wlan[*].mac.retryLimit 7
param **.wlan[*].mac.rtsThresholdBytes 3000B
param **.wlan[*].mgmt.frameCapacity 10
param **.wlan[*].radio.receiver.ignoreInterference true
param **.wlan[*].radio.transmitter.communicationRange 250m
param **.wlan[*].radio.transmitter.detectionRange 0m
param **.wlan[*].radio.transmitter.headerBitLength 0b
param **.wlan[*].radio.transmitter.interferenceRange 0m
param **.wlan[*].radioType "\"IdealRadio\""
param **.wlan[*].typename "\"IdealWirelessNic\""
param *.host0.numPingApps 1
param *.host0.pingApp[0].printPing true
param *.host0.pingApp[0].startTime uniform(1s,5s)
param *.numHosts 3

scalar SimpleRREQ 	hackForCreateResultsFolder 	0
scalar SimpleRREQ.radioMedium.propagation 	"Arrival computation count" 	10124277
scalar SimpleRREQ.radioMedium 	"transmission count" 	349113
scalar SimpleRREQ.radioMedium 	"radio frame send count" 	10124277
scalar SimpleRREQ.radioMedium 	"reception computation count" 	10123407
scalar SimpleRREQ.radioMedium 	"interference computation count" 	18734743
scalar SimpleRREQ.radioMedium 	"reception decision computation count" 	2413983
scalar SimpleRREQ.radioMedium 	"listening decision computation count" 	6197353
scalar SimpleRREQ.radioMedium 	"reception cache hit" 	91.511759643358
attr unit  %
scalar SimpleRREQ.radioMedium 	"interference cache hit" 	66.666666666667
attr unit  %
scalar SimpleRREQ.radioMedium 	"noise cache hit" 	0
attr unit  %
scalar SimpleRREQ.radioMedium 	"snir cache hit" 	50
attr unit  %
scalar SimpleRREQ.radioMedium 	"reception decision cache hit" 	50
attr unit  %
scalar SimpleRREQ.radioMedium 	"reception result cache hit" 	0
attr unit  %
scalar SimpleRREQ.host[0].networkLayer.arp 	sentReply:count 	0
attr title  "ARP replies sent, count"
scalar SimpleRREQ.host[0].networkLayer.arp 	sentReq:count 	0
attr title  "ARP request sent, count"
scalar SimpleRREQ.host[0].networkLayer.arp 	failedARPResolution:count 	0
attr title  "ARP failed resolutions, count"
scalar SimpleRREQ.host[0].networkLayer.arp 	completedARPResolution:count 	0
attr title  "ARP completed resolutions, count"
scalar SimpleRREQ.host[0].networkLayer.arp 	initiatedARPResolution:count 	0
attr title  "ARP initiated resolutions, count"
scalar SimpleRREQ.host[0].lo0.lo 	droppedPkBitError:count 	0
attr interpolationmode  none
attr source  dropPkBitError
attr title  "packets dropped/bit error, count"
scalar SimpleRREQ.host[0].lo0.lo 	droppedPkBitError:sum(packetBytes) 	0
attr interpolationmode  none
attr source  dropPkBitError
attr title  "packets dropped/bit error, sum(packetBytes)"
scalar SimpleRREQ.host[0].lo0.lo 	rcvdPkFromHL:count 	2396
attr interpolationmode  none
attr source  packetReceivedFromUpper
attr title  "packets received from higher layer, count"
scalar SimpleRREQ.host[0].lo0.lo 	rcvdPkFromHL:sum(packetBytes) 	201264
attr interpolationmode  none
attr source  packetReceivedFromUpper
attr title  "packets received from higher layer, sum(packetBytes)"
scalar SimpleRREQ.host[0].lo0.lo 	passedUpPk:count 	2396
attr interpolationmode  none
attr source  packetSentToUpper
attr title  "packets passed to higher layer, count"
scalar SimpleRREQ.host[0].lo0.lo 	passedUpPk:sum(packetBytes) 	201264
attr interpolationmode  none
attr source  packetSentToUpper
attr title  "packets passed to higher layer, sum(packetBytes)"
scalar SimpleRREQ.host[0].wlan[0].queue 	queueLength:max 	3
attr interpolationmode  sample-hold
attr title  "queue length, max"
scalar SimpleRREQ.host[0].wlan[0].queue 	queueLength:timeavg 	7.28769668375e-005
attr interpolationmode  sample-hold
attr title  "queue length, timeavg"
statistic SimpleRREQ.host[0].wlan[0].queue 	queueingTime:histogram
field count 9344
field mean 9.3591995082406e-006
field stddev 4.4959069311388e-005
field sum 0.087452360205
field sqrsum 1.9703657351018e-005
field min 0
field max 0.000575477966
attr interpolationmode  none
attr title  "queueing time, histogram"
bin	-INF	0
bin	-9.59893365e-005	0
bin	-8.31907583e-005	0
bin	-7.03921801e-005	0
bin	-5.75936019e-005	0
bin	-4.47950237e-005	0
bin	-3.19964455e-005	0
bin	-1.91978673e-005	0
bin	-6.3992891e-006	8926
bin	6.3992891e-006	0
bin	1.91978673e-005	0
bin	3.19964455e-005	0
bin	4.47950237e-005	0
bin	5.75936019e-005	0
bin	7.03921801e-005	0
bin	8.31907583e-005	0
bin	9.59893365e-005	0
bin	0.0001087879147	0
bin	0.0001215864929	0
bin	0.0001343850711	0
bin	0.0001471836493	0
bin	0.0001599822275	0
bin	0.0001727808057	0
bin	0.0001855793839	382
bin	0.0001983779621	0
bin	0.0002111765403	0
bin	0.0002239751185	0
bin	0.0002367736967	0
bin	0.0002495722749	0
bin	0.0002623708531	0
bin	0.0002751694313	0
bin	0.0002879680095	36
scalar SimpleRREQ.host[0].wlan[0].queue 	dropPk:count 	0
attr interpolationmode  none
attr source  dropPkByQueue
attr title  "dropped packets, count"
scalar SimpleRREQ.host[0].wlan[0].queue 	dropPk:sum(packetBytes) 	0
attr interpolationmode  none
attr source  dropPkByQueue
attr title  "dropped packets, sum(packetBytes)"
scalar SimpleRREQ.host[0].wlan[0].queue 	rcvdPk:count 	9344
attr interpolationmode  none
attr title  "received packets, count"
scalar SimpleRREQ.host[0].wlan[0].queue 	rcvdPk:sum(packetBytes) 	261632
attr interpolationmode  none
attr title  "received packets, sum(packetBytes)"
scalar SimpleRREQ.host[0].wlan[0].mac 	droppedPkNotForUs:count 	0
attr interpolationmode  none
attr source  dropPkNotForUs
attr title  "packets dropped/not for us, count"
scalar SimpleRREQ.host[0].wlan[0].mac 	droppedPkNotForUs:sum(packetBytes) 	0
attr interpolationmode  none
attr source  dropPkNotForUs
attr title  "packets dropped/not for us, sum(packetBytes)"
scalar SimpleRREQ.host[0].wlan[0].mac 	rcvdPkFromHL:count 	9344
attr interpolationmode  none
attr source  packetReceivedFromUpper
attr title  "packets received from higher layer, count"
scalar SimpleRREQ.host[0].wlan[0].mac 	rcvdPkFromHL:sum(packetBytes) 	261632
attr interpolationmode  none
attr source  packetReceivedFromUpper
attr title  "packets received from higher layer, sum(packetBytes)"
scalar SimpleRREQ.host[0].wlan[0].mac 	passedUpPk:count 	63450
attr interpolationmode  none
attr source  packetSentToUpper
attr title  "packets passed to higher layer, count"
scalar SimpleRREQ.host[0].wlan[0].mac 	passedUpPk:sum(packetBytes) 	1776600
attr interpolationmode  none
attr source  packetSentToUpper
attr title  "packets passed to higher layer, sum(packetBytes)"
scalar SimpleRREQ.host[0].wlan[0].mac 	rcvdPkFromLL:count 	63450
attr interpolationmode  none
attr source  packetReceivedFromLower
attr title  "packets received from lower layer, count"
scalar SimpleRREQ.host[0].wlan[0].mac 	rcvdPkFromLL:sum(packetBytes) 	3045600
attr interpolationmode  none
attr source  packetReceivedFromLower
attr title  "packets received from lower layer, sum(packetBytes)"
scalar SimpleRREQ.host[0].wlan[0].mac 	sentDownPk:count 	9344
attr interpolationmode  none
attr source  packetSentToLower
attr title  "packets sent to lower layer, count"
scalar SimpleRREQ.host[0].wlan[0].mac 	sentDownPk:sum(packetBytes) 	448512
attr interpolationmode  none
attr source  packetSentToLower
attr title  "packets sent to lower layer, sum(packetBytes)"
statistic SimpleRREQ.host[0].wlan[0].radio 	symbolErrorRate:histogram
field count 63450
field mean 0.43407407407407
field stddev 0.49563862234867
field sum 27542
field sqrsum 27542
field min 0
field max 1
attr source  symbolErrorRate
attr title  "Symbol error rate, histogram"
bin	-INF	0
bin	-1	0
bin	0	35908
bin	1	27542
bin	2	0
statistic SimpleRREQ.host[0].wlan[0].radio 	bitErrorRate:histogram
field count 63450
field mean 0.43407407407407
field stddev 0.49563862234867
field sum 27542
field sqrsum 27542
field min 0
field max 1
attr source  bitErrorRate
attr title  "Bit error rate, histogram"
bin	-INF	0
bin	-1	0
bin	0	35908
bin	1	27542
bin	2	0
statistic SimpleRREQ.host[0].wlan[0].radio 	packetErrorRate:histogram
field count 63450
field mean 0.43407407407407
field stddev 0.49563862234867
field sum 27542
field sqrsum 27542
field min 0
field max 1
attr source  packetErrorRate
attr title  "Packet error rate, histogram"
bin	-INF	0
bin	-1	0
bin	0	35908
bin	1	27542
bin	2	0
statistic SimpleRREQ.host[0].wlan[0].radio 	minSNIR:histogram
field count 63450
field mean nan
field stddev nan
field sum nan
field sqrsum nan
field min nan
field max nan
attr source  minSNIR
attr title  "Min SNIR, histogram"
bin	-INF	63450
bin	nan	0
bin	nan	0
bin	nan	0
bin	nan	0
bin	nan	0
bin	nan	0
bin	nan	0
bin	nan	0
bin	nan	0
bin	nan	0
bin	nan	0
bin	nan	0
bin	nan	0
bin	nan	0
bin	nan	0
bin	nan	0
bin	nan	0
bin	nan	0
bin	nan	0
bin	nan	0
bin	nan	0
bin	nan	0
bin	nan	0
bin	nan	0
bin	nan	0
bin	nan	0
bin	nan	0
bin	nan	0
bin	nan	0
bin	nan	0
bin	nan	0
scalar SimpleRREQ.host[0].wlan[0].radio 	transmissionState:count 	18688
attr interpolationmode  sample-hold
attr source  transmissionStateChanged
attr title  "Radio transmission state, count"
scalar SimpleRREQ.host[0].wlan[0].radio 	receptionState:count 	126905
attr interpolationmode  sample-hold
attr source  receptionStateChanged
attr title  "Radio reception state, count"
scalar SimpleRREQ.host[0].wlan[0].radio 	radioMode:count 	2
attr interpolationmode  sample-hold
attr source  radioModeChanged
attr title  "Radio mode, count"
scalar SimpleRREQ.host[0].pingApp[0] 	"Pings sent" 	1198
scalar SimpleRREQ.host[0].pingApp[0] 	"ping loss rate (%)" 	0
scalar SimpleRREQ.host[0].pingApp[0] 	"ping out-of-order rate (%)" 	0
scalar SimpleRREQ.host[0].pingApp[0] 	numOutOfOrderArrivals:last 	nan
attr interpolationmode  none
attr title  "ping out-of-order arrivals, last"
scalar SimpleRREQ.host[0].pingApp[0] 	pingRxSeq:count 	1198
attr interpolationmode  none
attr title  "ping rx seq, count"
scalar SimpleRREQ.host[0].pingApp[0] 	pingTxSeq:count 	1198
attr interpolationmode  none
attr title  "ping tx seq, count"
scalar SimpleRREQ.host[0].pingApp[0] 	numLost:last 	nan
attr interpolationmode  none
attr title  "pings lost, last"
statistic SimpleRREQ.host[0].pingApp[0] 	rtt:histogram
field count 1198
field mean 0.19294657762938
field stddev 0.03155267149551
field sum 231.15
field sqrsum 45.7913
field min 0.12
field max 0.26
attr interpolationmode  none
attr title  "ping round-trip time, histogram"
attr unit  s
bin	-INF	0
bin	0.05	0
bin	0.059333333333333	0
bin	0.068666666666667	0
bin	0.078	0
bin	0.087333333333333	0
bin	0.096666666666667	0
bin	0.106	0
bin	0.11533333333333	14
bin	0.12466666666667	26
bin	0.134	44
bin	0.14333333333333	64
bin	0.15266666666667	86
bin	0.162	107
bin	0.17133333333333	139
bin	0.18066666666667	0
bin	0.19	170
bin	0.19933333333333	132
bin	0.20866666666667	111
bin	0.218	94
bin	0.22733333333333	82
bin	0.23666666666667	64
bin	0.246	45
bin	0.25533333333333	20
bin	0.26466666666667	0
bin	0.274	0
bin	0.28333333333333	0
bin	0.29266666666667	0
bin	0.302	0
bin	0.31133333333333	0
bin	0.32066666666667	0
bin	0.33	0
scalar SimpleRREQ.host[0].epf 	dataFwd:count 	261
attr interpolationmode  none
attr source  dataFwd
attr title  "Forward Data message, count"
scalar SimpleRREQ.host[0].epf 	dataDest:count 	309
attr interpolationmode  none
attr source  dataDest
attr title  "Received Data message on Destination, count"
scalar SimpleRREQ.host[0].epf 	dataRec:count 	6822
attr interpolationmode  none
attr source  dataRec
attr title  "Received Data message, count"
scalar SimpleRREQ.host[0].epf 	dataSent:count 	600
attr interpolationmode  none
attr source  dataSent
attr title  "Sent Data message, count"
scalar SimpleRREQ.host[0].epf 	destResp:count 	292
attr interpolationmode  none
attr source  destResp
attr title  "Response from destination, count"
scalar SimpleRREQ.host[0].epf 	destEnq:count 	292
attr interpolationmode  none
attr source  destEnq
attr title  "Enquire to Destination, count"
scalar SimpleRREQ.host[0].epf 	respNOkRec:count 	2113
attr interpolationmode  none
attr source  respNOkRec
attr title  "Received Not Ok Response message, count"
scalar SimpleRREQ.host[0].epf 	respNOkSent:count 	1796
attr interpolationmode  none
attr source  respNOkSent
attr title  "Sent Not Ok Response message, count"
scalar SimpleRREQ.host[0].epf 	respOkRec:count 	600
attr interpolationmode  none
attr source  respOkRec
attr title  "Received Ok Response message, count"
scalar SimpleRREQ.host[0].epf 	respOkSent:count 	1829
attr interpolationmode  none
attr source  respOkSent
attr title  "Sent Ok Response message, count"
scalar SimpleRREQ.host[0].epf 	respRec:count 	48328
attr interpolationmode  none
attr source  respRec
attr title  "Received Response message, count"
scalar SimpleRREQ.host[0].epf 	respSent:count 	0
attr interpolationmode  none
attr source  respSent
attr title  "Sent Response message, count"
scalar SimpleRREQ.host[0].epf 	enquireRec:count 	7501
attr interpolationmode  none
attr source  enquireRec
attr title  "Received Enquire message, count"
scalar SimpleRREQ.host[0].epf 	enquireSent:count 	397
attr interpolationmode  none
attr source  enquireSent
attr title  "Sent Enquire message, count"
scalar SimpleRREQ.host[0].epf 	rrep2Rec:count 	0
attr interpolationmode  none
attr source  rrep2Rec
attr title  "Received type 2 RREP, count"
scalar SimpleRREQ.host[0].epf 	rrep1Rec:count 	0
attr interpolationmode  none
attr source  rrep1Rec
attr title  "Received type 1 RREP, count"
scalar SimpleRREQ.host[0].epf 	rrepRec:count 	0
attr interpolationmode  none
attr source  rrepRec
attr title  "Received RREP, count"
scalar SimpleRREQ.host[0].epf 	rreq1Rec:count 	0
attr interpolationmode  none
attr source  rreq1Rec
attr title  "Received type 1 RREQ, count"
scalar SimpleRREQ.host[0].epf 	rreqRec:count 	0
attr interpolationmode  none
attr source  rreqRec
attr title  "Received RREQ, count"
scalar SimpleRREQ.host[0].epf 	rrepSent:count 	0
attr interpolationmode  none
attr source  rrepSent
attr title  "Sent RREP, count"
scalar SimpleRREQ.host[0].epf 	rreqSent:count 	0
attr interpolationmode  none
attr source  rreqSent
attr title  "Sent RREQ, count"
scalar SimpleRREQ.host[1].networkLayer.arp 	sentReply:count 	0
attr title  "ARP replies sent, count"
scalar SimpleRREQ.host[1].networkLayer.arp 	sentReq:count 	0
attr title  "ARP request sent, count"
scalar SimpleRREQ.host[1].networkLayer.arp 	failedARPResolution:count 	0
attr title  "ARP failed resolutions, count"
scalar SimpleRREQ.host[1].networkLayer.arp 	completedARPResolution:count 	0
attr title  "ARP completed resolutions, count"
scalar SimpleRREQ.host[1].networkLayer.arp 	initiatedARPResolution:count 	0
attr title  "ARP initiated resolutions, count"
scalar SimpleRREQ.host[1].lo0.lo 	droppedPkBitError:count 	0
attr interpolationmode  none
attr source  dropPkBitError
attr title  "packets dropped/bit error, count"
scalar SimpleRREQ.host[1].lo0.lo 	droppedPkBitError:sum(packetBytes) 	0
attr interpolationmode  none
attr source  dropPkBitError
attr title  "packets dropped/bit error, sum(packetBytes)"
scalar SimpleRREQ.host[1].lo0.lo 	rcvdPkFromHL:count 	0
attr interpolationmode  none
attr source  packetReceivedFromUpper
attr title  "packets received from higher layer, count"
scalar SimpleRREQ.host[1].lo0.lo 	rcvdPkFromHL:sum(packetBytes) 	0
attr interpolationmode  none
attr source  packetReceivedFromUpper
attr title  "packets received from higher layer, sum(packetBytes)"
scalar SimpleRREQ.host[1].lo0.lo 	passedUpPk:count 	0
attr interpolationmode  none
attr source  packetSentToUpper
attr title  "packets passed to higher layer, count"
scalar SimpleRREQ.host[1].lo0.lo 	passedUpPk:sum(packetBytes) 	0
attr interpolationmode  none
attr source  packetSentToUpper
attr title  "packets passed to higher layer, sum(packetBytes)"
scalar SimpleRREQ.host[1].wlan[0].queue 	queueLength:max 	3
attr interpolationmode  sample-hold
attr title  "queue length, max"
scalar SimpleRREQ.host[1].wlan[0].queue 	queueLength:timeavg 	0.00011313941699333
attr interpolationmode  sample-hold
attr title  "queue length, timeavg"
statistic SimpleRREQ.host[1].wlan[0].queue 	queueingTime:histogram
field count 12310
field mean 1.1029025214622e-005
field stddev 4.8422301491285e-005
field sum 0.135767300392
field sqrsum 3.0358530617948e-005
field min 0
field max 0.000575780061
attr interpolationmode  none
attr title  "queueing time, histogram"
bin	-INF	0
bin	-9.5931931e-005	0
bin	-8.3141006866667e-005	0
bin	-7.0350082733333e-005	0
bin	-5.75591586e-005	0
bin	-4.4768234466667e-005	0
bin	-3.1977310333333e-005	0
bin	-1.91863862e-005	0
bin	-6.3954620666667e-006	11658
bin	6.3954620666667e-006	0
bin	1.91863862e-005	0
bin	3.1977310333333e-005	0
bin	4.4768234466667e-005	0
bin	5.75591586e-005	0
bin	7.0350082733333e-005	0
bin	8.3141006866667e-005	0
bin	9.5931931e-005	0
bin	0.00010872285513333	0
bin	0.00012151377926667	0
bin	0.0001343047034	0
bin	0.00014709562753333	0
bin	0.00015988655166667	0
bin	0.0001726774758	0
bin	0.00018546839993333	599
bin	0.00019825932406667	0
bin	0.0002110502482	0
bin	0.00022384117233333	0
bin	0.00023663209646667	0
bin	0.0002494230206	0
bin	0.00026221394473333	0
bin	0.00027500486886667	0
bin	0.000287795793	53
scalar SimpleRREQ.host[1].wlan[0].queue 	dropPk:count 	0
attr interpolationmode  none
attr source  dropPkByQueue
attr title  "dropped packets, count"
scalar SimpleRREQ.host[1].wlan[0].queue 	dropPk:sum(packetBytes) 	0
attr interpolationmode  none
attr source  dropPkByQueue
attr title  "dropped packets, sum(packetBytes)"
scalar SimpleRREQ.host[1].wlan[0].queue 	rcvdPk:count 	12310
attr interpolationmode  none
attr title  "received packets, count"
scalar SimpleRREQ.host[1].wlan[0].queue 	rcvdPk:sum(packetBytes) 	344680
attr interpolationmode  none
attr title  "received packets, sum(packetBytes)"
scalar SimpleRREQ.host[1].wlan[0].mac 	droppedPkNotForUs:count 	0
attr interpolationmode  none
attr source  dropPkNotForUs
attr title  "packets dropped/not for us, count"
scalar SimpleRREQ.host[1].wlan[0].mac 	droppedPkNotForUs:sum(packetBytes) 	0
attr interpolationmode  none
attr source  dropPkNotForUs
attr title  "packets dropped/not for us, sum(packetBytes)"
scalar SimpleRREQ.host[1].wlan[0].mac 	rcvdPkFromHL:count 	12310
attr interpolationmode  none
attr source  packetReceivedFromUpper
attr title  "packets received from higher layer, count"
scalar SimpleRREQ.host[1].wlan[0].mac 	rcvdPkFromHL:sum(packetBytes) 	344680
attr interpolationmode  none
attr source  packetReceivedFromUpper
attr title  "packets received from higher layer, sum(packetBytes)"
scalar SimpleRREQ.host[1].wlan[0].mac 	passedUpPk:count 	81960
attr interpolationmode  none
attr source  packetSentToUpper
attr title  "packets passed to higher layer, count"
scalar SimpleRREQ.host[1].wlan[0].mac 	passedUpPk:sum(packetBytes) 	2294880
attr interpolationmode  none
attr source  packetSentToUpper
attr title  "packets passed to higher layer, sum(packetBytes)"
scalar SimpleRREQ.host[1].wlan[0].mac 	rcvdPkFromLL:count 	81960
attr interpolationmode  none
attr source  packetReceivedFromLower
attr title  "packets received from lower layer, count"
scalar SimpleRREQ.host[1].wlan[0].mac 	rcvdPkFromLL:sum(packetBytes) 	3934080
attr interpolationmode  none
attr source  packetReceivedFromLower
attr title  "packets received from lower layer, sum(packetBytes)"
scalar SimpleRREQ.host[1].wlan[0].mac 	sentDownPk:count 	12310
attr interpolationmode  none
attr source  packetSentToLower
attr title  "packets sent to lower layer, count"
scalar SimpleRREQ.host[1].wlan[0].mac 	sentDownPk:sum(packetBytes) 	590880
attr interpolationmode  none
attr source  packetSentToLower
attr title  "packets sent to lower layer, sum(packetBytes)"
statistic SimpleRREQ.host[1].wlan[0].radio 	symbolErrorRate:histogram
field count 81960
field mean 0.50955344070278
field stddev 0.49991177317882
field sum 41763
field sqrsum 41763
field min 0
field max 1
attr source  symbolErrorRate
attr title  "Symbol error rate, histogram"
bin	-INF	0
bin	-1	0
bin	0	40197
bin	1	41763
bin	2	0
statistic SimpleRREQ.host[1].wlan[0].radio 	bitErrorRate:histogram
field count 81960
field mean 0.50955344070278
field stddev 0.49991177317882
field sum 41763
field sqrsum 41763
field min 0
field max 1
attr source  bitErrorRate
attr title  "Bit error rate, histogram"
bin	-INF	0
bin	-1	0
bin	0	40197
bin	1	41763
bin	2	0
statistic SimpleRREQ.host[1].wlan[0].radio 	packetErrorRate:histogram
field count 81960
field mean 0.50955344070278
field stddev 0.49991177317882
field sum 41763
field sqrsum 41763
field min 0
field max 1
attr source  packetErrorRate
attr title  "Packet error rate, histogram"
bin	-INF	0
bin	-1	0
bin	0	40197
bin	1	41763
bin	2	0
statistic SimpleRREQ.host[1].wlan[0].radio 	minSNIR:histogram
field count 81960
field mean nan
field stddev nan
field sum nan
field sqrsum nan
field min nan
field max nan
attr source  minSNIR
attr title  "Min SNIR, histogram"
bin	-INF	81960
bin	nan	0
bin	nan	0
bin	nan	0
bin	nan	0
bin	nan	0
bin	nan	0
bin	nan	0
bin	nan	0
bin	nan	0
bin	nan	0
bin	nan	0
bin	nan	0
bin	nan	0
bin	nan	0
bin	nan	0
bin	nan	0
bin	nan	0
bin	nan	0
bin	nan	0
bin	nan	0
bin	nan	0
bin	nan	0
bin	nan	0
bin	nan	0
bin	nan	0
bin	nan	0
bin	nan	0
bin	nan	0
bin	nan	0
bin	nan	0
bin	nan	0
scalar SimpleRREQ.host[1].wlan[0].radio 	transmissionState:count 	24620
attr interpolationmode  sample-hold
attr source  transmissionStateChanged
attr title  "Radio transmission state, count"
scalar SimpleRREQ.host[1].wlan[0].radio 	receptionState:count 	163922
attr interpolationmode  sample-hold
attr source  receptionStateChanged
attr title  "Radio reception state, count"
scalar SimpleRREQ.host[1].wlan[0].radio 	radioMode:count 	2
attr interpolationmode  sample-hold
attr source  radioModeChanged
attr title  "Radio mode, count"
scalar SimpleRREQ.host[1].pingApp[0] 	"Pings sent" 	1198
scalar SimpleRREQ.host[1].pingApp[0] 	"ping loss rate (%)" 	100
scalar SimpleRREQ.host[1].pingApp[0] 	"ping out-of-order rate (%)" 	0
scalar SimpleRREQ.host[1].pingApp[0] 	numOutOfOrderArrivals:last 	nan
attr interpolationmode  none
attr title  "ping out-of-order arrivals, last"
scalar SimpleRREQ.host[1].pingApp[0] 	pingRxSeq:count 	0
attr interpolationmode  none
attr title  "ping rx seq, count"
scalar SimpleRREQ.host[1].pingApp[0] 	pingTxSeq:count 	1198
attr interpolationmode  none
attr title  "ping tx seq, count"
scalar SimpleRREQ.host[1].pingApp[0] 	numLost:last 	nan
attr interpolationmode  none
attr title  "pings lost, last"
statistic SimpleRREQ.host[1].pingApp[0] 	rtt:histogram
field count 0
field mean nan
field stddev nan
field sum 0
field sqrsum 0
field min nan
field max nan
attr interpolationmode  none
attr title  "ping round-trip time, histogram"
attr unit  s
bin	-INF	0
bin	-0.5	0
bin	-0.46666666666667	0
bin	-0.43333333333333	0
bin	-0.4	0
bin	-0.36666666666667	0
bin	-0.33333333333333	0
bin	-0.3	0
bin	-0.26666666666667	0
bin	-0.23333333333333	0
bin	-0.2	0
bin	-0.16666666666667	0
bin	-0.13333333333333	0
bin	-0.1	0
bin	-0.066666666666667	0
bin	-0.033333333333333	0
bin	0	0
bin	0.033333333333333	0
bin	0.066666666666667	0
bin	0.1	0
bin	0.13333333333333	0
bin	0.16666666666667	0
bin	0.2	0
bin	0.23333333333333	0
bin	0.26666666666667	0
bin	0.3	0
bin	0.33333333333333	0
bin	0.36666666666667	0
bin	0.4	0
bin	0.43333333333333	0
bin	0.46666666666667	0
bin	0.5	0
scalar SimpleRREQ.host[1].epf 	dataFwd:count 	483
attr interpolationmode  none
attr source  dataFwd
attr title  "Forward Data message, count"
scalar SimpleRREQ.host[1].epf 	dataDest:count 	346
attr interpolationmode  none
attr source  dataDest
attr title  "Received Data message on Destination, count"
scalar SimpleRREQ.host[1].epf 	dataRec:count 	10347
attr interpolationmode  none
attr source  dataRec
attr title  "Received Data message, count"
scalar SimpleRREQ.host[1].epf 	dataSent:count 	815
attr interpolationmode  none
attr source  dataSent
attr title  "Sent Data message, count"
scalar SimpleRREQ.host[1].epf 	destResp:count 	312
attr interpolationmode  none
attr source  destResp
attr title  "Response from destination, count"
scalar SimpleRREQ.host[1].epf 	destEnq:count 	312
attr interpolationmode  none
attr source  destEnq
attr title  "Enquire to Destination, count"
scalar SimpleRREQ.host[1].epf 	respNOkRec:count 	2917
attr interpolationmode  none
attr source  respNOkRec
attr title  "Received Not Ok Response message, count"
scalar SimpleRREQ.host[1].epf 	respNOkSent:count 	3110
attr interpolationmode  none
attr source  respNOkSent
attr title  "Sent Not Ok Response message, count"
scalar SimpleRREQ.host[1].epf 	respOkRec:count 	815
attr interpolationmode  none
attr source  respOkRec
attr title  "Received Ok Response message, count"
scalar SimpleRREQ.host[1].epf 	respOkSent:count 	2086
attr interpolationmode  none
attr source  respOkSent
attr title  "Sent Ok Response message, count"
scalar SimpleRREQ.host[1].epf 	respRec:count 	60598
attr interpolationmode  none
attr source  respRec
attr title  "Received Response message, count"
scalar SimpleRREQ.host[1].epf 	respSent:count 	0
attr interpolationmode  none
attr source  respSent
attr title  "Sent Response message, count"
scalar SimpleRREQ.host[1].epf 	enquireRec:count 	10216
attr interpolationmode  none
attr source  enquireRec
attr title  "Received Enquire message, count"
scalar SimpleRREQ.host[1].epf 	enquireSent:count 	477
attr interpolationmode  none
attr source  enquireSent
attr title  "Sent Enquire message, count"
scalar SimpleRREQ.host[1].epf 	rrep2Rec:count 	0
attr interpolationmode  none
attr source  rrep2Rec
attr title  "Received type 2 RREP, count"
scalar SimpleRREQ.host[1].epf 	rrep1Rec:count 	0
attr interpolationmode  none
attr source  rrep1Rec
attr title  "Received type 1 RREP, count"
scalar SimpleRREQ.host[1].epf 	rrepRec:count 	0
attr interpolationmode  none
attr source  rrepRec
attr title  "Received RREP, count"
scalar SimpleRREQ.host[1].epf 	rreq1Rec:count 	0
attr interpolationmode  none
attr source  rreq1Rec
attr title  "Received type 1 RREQ, count"
scalar SimpleRREQ.host[1].epf 	rreqRec:count 	0
attr interpolationmode  none
attr source  rreqRec
attr title  "Received RREQ, count"
scalar SimpleRREQ.host[1].epf 	rrepSent:count 	0
attr interpolationmode  none
attr source  rrepSent
attr title  "Sent RREP, count"
scalar SimpleRREQ.host[1].epf 	rreqSent:count 	0
attr interpolationmode  none
attr source  rreqSent
attr title  "Sent RREQ, count"
scalar SimpleRREQ.host[2].networkLayer.arp 	sentReply:count 	0
attr title  "ARP replies sent, count"
scalar SimpleRREQ.host[2].networkLayer.arp 	sentReq:count 	0
attr title  "ARP request sent, count"
scalar SimpleRREQ.host[2].networkLayer.arp 	failedARPResolution:count 	0
attr title  "ARP failed resolutions, count"
scalar SimpleRREQ.host[2].networkLayer.arp 	completedARPResolution:count 	0
attr title  "ARP completed resolutions, count"
scalar SimpleRREQ.host[2].networkLayer.arp 	initiatedARPResolution:count 	0
attr title  "ARP initiated resolutions, count"
scalar SimpleRREQ.host[2].lo0.lo 	droppedPkBitError:count 	0
attr interpolationmode  none
attr source  dropPkBitError
attr title  "packets dropped/bit error, count"
scalar SimpleRREQ.host[2].lo0.lo 	droppedPkBitError:sum(packetBytes) 	0
attr interpolationmode  none
attr source  dropPkBitError
attr title  "packets dropped/bit error, sum(packetBytes)"
scalar SimpleRREQ.host[2].lo0.lo 	rcvdPkFromHL:count 	0
attr interpolationmode  none
attr source  packetReceivedFromUpper
attr title  "packets received from higher layer, count"
scalar SimpleRREQ.host[2].lo0.lo 	rcvdPkFromHL:sum(packetBytes) 	0
attr interpolationmode  none
attr source  packetReceivedFromUpper
attr title  "packets received from higher layer, sum(packetBytes)"
scalar SimpleRREQ.host[2].lo0.lo 	passedUpPk:count 	0
attr interpolationmode  none
attr source  packetSentToUpper
attr title  "packets passed to higher layer, count"
scalar SimpleRREQ.host[2].lo0.lo 	passedUpPk:sum(packetBytes) 	0
attr interpolationmode  none
attr source  packetSentToUpper
attr title  "packets passed to higher layer, sum(packetBytes)"
scalar SimpleRREQ.host[2].wlan[0].queue 	queueLength:max 	3
attr interpolationmode  sample-hold
attr title  "queue length, max"
scalar SimpleRREQ.host[2].wlan[0].queue 	queueLength:timeavg 	0.00012914785203083
attr interpolationmode  sample-hold
attr title  "queue length, timeavg"
statistic SimpleRREQ.host[2].wlan[0].queue 	queueingTime:histogram
field count 12808
field mean 1.2100048597517e-005
field stddev 5.1478566707916e-005
field sum 0.154977422437
field sqrsum 3.5814332870675e-005
field min 0
field max 0.000575809898
attr interpolationmode  none
attr title  "queueing time, histogram"
bin	-INF	0
bin	-9.59666255e-005	0
bin	-8.3171075433333e-005	0
bin	-7.0375525366667e-005	0
bin	-5.75799753e-005	0
bin	-4.4784425233333e-005	0
bin	-3.1988875166667e-005	0
bin	-1.91933251e-005	0
bin	-6.3977750333333e-006	12077
bin	6.3977750333333e-006	0
bin	1.91933251e-005	0
bin	3.1988875166667e-005	0
bin	4.4784425233333e-005	0
bin	5.75799753e-005	0
bin	7.0375525366667e-005	0
bin	8.3171075433333e-005	0
bin	9.59666255e-005	0
bin	0.00010876217556667	0
bin	0.00012155772563333	0
bin	0.0001343532757	0
bin	0.00014714882576667	0
bin	0.00015994437583333	0
bin	0.0001727399259	0
bin	0.00018553547596667	660
bin	0.00019833102603333	0
bin	0.0002111265761	0
bin	0.00022392212616667	0
bin	0.00023671767623333	0
bin	0.0002495132263	0
bin	0.00026230877636667	0
bin	0.00027510432643333	0
bin	0.0002878998765	71
scalar SimpleRREQ.host[2].wlan[0].queue 	dropPk:count 	0
attr interpolationmode  none
attr source  dropPkByQueue
attr title  "dropped packets, count"
scalar SimpleRREQ.host[2].wlan[0].queue 	dropPk:sum(packetBytes) 	0
attr interpolationmode  none
attr source  dropPkByQueue
attr title  "dropped packets, sum(packetBytes)"
scalar SimpleRREQ.host[2].wlan[0].queue 	rcvdPk:count 	12808
attr interpolationmode  none
attr title  "received packets, count"
scalar SimpleRREQ.host[2].wlan[0].queue 	rcvdPk:sum(packetBytes) 	358624
attr interpolationmode  none
attr title  "received packets, sum(packetBytes)"
scalar SimpleRREQ.host[2].wlan[0].mac 	droppedPkNotForUs:count 	0
attr interpolationmode  none
attr source  dropPkNotForUs
attr title  "packets dropped/not for us, count"
scalar SimpleRREQ.host[2].wlan[0].mac 	droppedPkNotForUs:sum(packetBytes) 	0
attr interpolationmode  none
attr source  dropPkNotForUs
attr title  "packets dropped/not for us, sum(packetBytes)"
scalar SimpleRREQ.host[2].wlan[0].mac 	rcvdPkFromHL:count 	12808
attr interpolationmode  none
attr source  packetReceivedFromUpper
attr title  "packets received from higher layer, count"
scalar SimpleRREQ.host[2].wlan[0].mac 	rcvdPkFromHL:sum(packetBytes) 	358624
attr interpolationmode  none
attr source  packetReceivedFromUpper
attr title  "packets received from higher layer, sum(packetBytes)"
scalar SimpleRREQ.host[2].wlan[0].mac 	passedUpPk:count 	85041
attr interpolationmode  none
attr source  packetSentToUpper
attr title  "packets passed to higher layer, count"
scalar SimpleRREQ.host[2].wlan[0].mac 	passedUpPk:sum(packetBytes) 	2381148
attr interpolationmode  none
attr source  packetSentToUpper
attr title  "packets passed to higher layer, sum(packetBytes)"
scalar SimpleRREQ.host[2].wlan[0].mac 	rcvdPkFromLL:count 	85041
attr interpolationmode  none
attr source  packetReceivedFromLower
attr title  "packets received from lower layer, count"
scalar SimpleRREQ.host[2].wlan[0].mac 	rcvdPkFromLL:sum(packetBytes) 	4081968
attr interpolationmode  none
attr source  packetReceivedFromLower
attr title  "packets received from lower layer, sum(packetBytes)"
scalar SimpleRREQ.host[2].wlan[0].mac 	sentDownPk:count 	12808
attr interpolationmode  none
attr source  packetSentToLower
attr title  "packets sent to lower layer, count"
scalar SimpleRREQ.host[2].wlan[0].mac 	sentDownPk:sum(packetBytes) 	614784
attr interpolationmode  none
attr source  packetSentToLower
attr title  "packets sent to lower layer, sum(packetBytes)"
statistic SimpleRREQ.host[2].wlan[0].radio 	symbolErrorRate:histogram
field count 85041
field mean 0.50453310755988
field stddev 0.49998239017714
field sum 42906
field sqrsum 42906
field min 0
field max 1
attr source  symbolErrorRate
attr title  "Symbol error rate, histogram"
bin	-INF	0
bin	-1	0
bin	0	42135
bin	1	42906
bin	2	0
statistic SimpleRREQ.host[2].wlan[0].radio 	bitErrorRate:histogram
field count 85041
field mean 0.50453310755988
field stddev 0.49998239017714
field sum 42906
field sqrsum 42906
field min 0
field max 1
attr source  bitErrorRate
attr title  "Bit error rate, histogram"
bin	-INF	0
bin	-1	0
bin	0	42135
bin	1	42906
bin	2	0
statistic SimpleRREQ.host[2].wlan[0].radio 	packetErrorRate:histogram
field count 85041
field mean 0.50453310755988
field stddev 0.49998239017714
field sum 42906
field sqrsum 42906
field min 0
field max 1
attr source  packetErrorRate
attr title  "Packet error rate, histogram"
bin	-INF	0
bin	-1	0
bin	0	42135
bin	1	42906
bin	2	0
statistic SimpleRREQ.host[2].wlan[0].radio 	minSNIR:histogram
field count 85041
field mean nan
field stddev nan
field sum nan
field sqrsum nan
field min nan
field max nan
attr source  minSNIR
attr title  "Min SNIR, histogram"
bin	-INF	85041
bin	nan	0
bin	nan	0
bin	nan	0
bin	nan	0
bin	nan	0
bin	nan	0
bin	nan	0
bin	nan	0
bin	nan	0
bin	nan	0
bin	nan	0
bin	nan	0
bin	nan	0
bin	nan	0
bin	nan	0
bin	nan	0
bin	nan	0
bin	nan	0
bin	nan	0
bin	nan	0
bin	nan	0
bin	nan	0
bin	nan	0
bin	nan	0
bin	nan	0
bin	nan	0
bin	nan	0
bin	nan	0
bin	nan	0
bin	nan	0
bin	nan	0
scalar SimpleRREQ.host[2].wlan[0].radio 	transmissionState:count 	25616
attr interpolationmode  sample-hold
attr source  transmissionStateChanged
attr title  "Radio transmission state, count"
scalar SimpleRREQ.host[2].wlan[0].radio 	receptionState:count 	170084
attr interpolationmode  sample-hold
attr source  receptionStateChanged
attr title  "Radio reception state, count"
scalar SimpleRREQ.host[2].wlan[0].radio 	radioMode:count 	2
attr interpolationmode  sample-hold
attr source  radioModeChanged
attr title  "Radio mode, count"
scalar SimpleRREQ.host[2].pingApp[0] 	"Pings sent" 	1196
scalar SimpleRREQ.host[2].pingApp[0] 	"ping loss rate (%)" 	100
scalar SimpleRREQ.host[2].pingApp[0] 	"ping out-of-order rate (%)" 	0
scalar SimpleRREQ.host[2].pingApp[0] 	numOutOfOrderArrivals:last 	nan
attr interpolationmode  none
attr title  "ping out-of-order arrivals, last"
scalar SimpleRREQ.host[2].pingApp[0] 	pingRxSeq:count 	0
attr interpolationmode  none
attr title  "ping rx seq, count"
scalar SimpleRREQ.host[2].pingApp[0] 	pingTxSeq:count 	1196
attr interpolationmode  none
attr title  "ping tx seq, count"
scalar SimpleRREQ.host[2].pingApp[0] 	numLost:last 	nan
attr interpolationmode  none
attr title  "pings lost, last"
statistic SimpleRREQ.host[2].pingApp[0] 	rtt:histogram
field count 0
field mean nan
field stddev nan
field sum 0
field sqrsum 0
field min nan
field max nan
attr interpolationmode  none
attr title  "ping round-trip time, histogram"
attr unit  s
bin	-INF	0
bin	-0.5	0
bin	-0.46666666666667	0
bin	-0.43333333333333	0
bin	-0.4	0
bin	-0.36666666666667	0
bin	-0.33333333333333	0
bin	-0.3	0
bin	-0.26666666666667	0
bin	-0.23333333333333	0
bin	-0.2	0
bin	-0.16666666666667	0
bin	-0.13333333333333	0
bin	-0.1	0
bin	-0.066666666666667	0
bin	-0.033333333333333	0
bin	0	0
bin	0.033333333333333	0
bin	0.066666666666667	0
bin	0.1	0
bin	0.13333333333333	0
bin	0.16666666666667	0
bin	0.2	0
bin	0.23333333333333	0
bin	0.26666666666667	0
bin	0.3	0
bin	0.33333333333333	0
bin	0.36666666666667	0
bin	0.4	0
bin	0.43333333333333	0
bin	0.46666666666667	0
bin	0.5	0
scalar SimpleRREQ.host[2].epf 	dataFwd:count 	359
attr interpolationmode  none
attr source  dataFwd
attr title  "Forward Data message, count"
scalar SimpleRREQ.host[2].epf 	dataDest:count 	288
attr interpolationmode  none
attr source  dataDest
attr title  "Received Data message on Destination, count"
scalar SimpleRREQ.host[2].epf 	dataRec:count 	10377
attr interpolationmode  none
attr source  dataRec
attr title  "Received Data message, count"
scalar SimpleRREQ.host[2].epf 	dataSent:count 	670
attr interpolationmode  none
attr source  dataSent
attr title  "Sent Data message, count"
scalar SimpleRREQ.host[2].epf 	destResp:count 	293
attr interpolationmode  none
attr source  destResp
attr title  "Response from destination, count"
scalar SimpleRREQ.host[2].epf 	destEnq:count 	293
attr interpolationmode  none
attr source  destEnq
attr title  "Enquire to Destination, count"
scalar SimpleRREQ.host[2].epf 	respNOkRec:count 	3525
attr interpolationmode  none
attr source  respNOkRec
attr title  "Received Not Ok Response message, count"
scalar SimpleRREQ.host[2].epf 	respNOkSent:count 	4031
attr interpolationmode  none
attr source  respNOkSent
attr title  "Sent Not Ok Response message, count"
scalar SimpleRREQ.host[2].epf 	respOkRec:count 	670
attr interpolationmode  none
attr source  respOkRec
attr title  "Received Ok Response message, count"
scalar SimpleRREQ.host[2].epf 	respOkSent:count 	1997
attr interpolationmode  none
attr source  respOkSent
attr title  "Sent Ok Response message, count"
scalar SimpleRREQ.host[2].epf 	respRec:count 	63205
attr interpolationmode  none
attr source  respRec
attr title  "Received Response message, count"
scalar SimpleRREQ.host[2].epf 	respSent:count 	0
attr interpolationmode  none
attr source  respSent
attr title  "Sent Response message, count"
scalar SimpleRREQ.host[2].epf 	enquireRec:count 	10660
attr interpolationmode  none
attr source  enquireRec
attr title  "Received Enquire message, count"
scalar SimpleRREQ.host[2].epf 	enquireSent:count 	532
attr interpolationmode  none
attr source  enquireSent
attr title  "Sent Enquire message, count"
scalar SimpleRREQ.host[2].epf 	rrep2Rec:count 	0
attr interpolationmode  none
attr source  rrep2Rec
attr title  "Received type 2 RREP, count"
scalar SimpleRREQ.host[2].epf 	rrep1Rec:count 	0
attr interpolationmode  none
attr source  rrep1Rec
attr title  "Received type 1 RREP, count"
scalar SimpleRREQ.host[2].epf 	rrepRec:count 	0
attr interpolationmode  none
attr source  rrepRec
attr title  "Received RREP, count"
scalar SimpleRREQ.host[2].epf 	rreq1Rec:count 	0
attr interpolationmode  none
attr source  rreq1Rec
attr title  "Received type 1 RREQ, count"
scalar SimpleRREQ.host[2].epf 	rreqRec:count 	0
attr interpolationmode  none
attr source  rreqRec
attr title  "Received RREQ, count"
scalar SimpleRREQ.host[2].epf 	rrepSent:count 	0
attr interpolationmode  none
attr source  rrepSent
attr title  "Sent RREP, count"
scalar SimpleRREQ.host[2].epf 	rreqSent:count 	0
attr interpolationmode  none
attr source  rreqSent
attr title  "Sent RREQ, count"
scalar SimpleRREQ.host[3].networkLayer.arp 	sentReply:count 	0
attr title  "ARP replies sent, count"
scalar SimpleRREQ.host[3].networkLayer.arp 	sentReq:count 	0
attr title  "ARP request sent, count"
scalar SimpleRREQ.host[3].networkLayer.arp 	failedARPResolution:count 	0
attr title  "ARP failed resolutions, count"
scalar SimpleRREQ.host[3].networkLayer.arp 	completedARPResolution:count 	0
attr title  "ARP completed resolutions, count"
scalar SimpleRREQ.host[3].networkLayer.arp 	initiatedARPResolution:count 	0
attr title  "ARP initiated resolutions, count"
scalar SimpleRREQ.host[3].lo0.lo 	droppedPkBitError:count 	0
attr interpolationmode  none
attr source  dropPkBitError
attr title  "packets dropped/bit error, count"
scalar SimpleRREQ.host[3].lo0.lo 	droppedPkBitError:sum(packetBytes) 	0
attr interpolationmode  none
attr source  dropPkBitError
attr title  "packets dropped/bit error, sum(packetBytes)"
scalar SimpleRREQ.host[3].lo0.lo 	rcvdPkFromHL:count 	0
attr interpolationmode  none
attr source  packetReceivedFromUpper
attr title  "packets received from higher layer, count"
scalar SimpleRREQ.host[3].lo0.lo 	rcvdPkFromHL:sum(packetBytes) 	0
attr interpolationmode  none
attr source  packetReceivedFromUpper
attr title  "packets received from higher layer, sum(packetBytes)"
scalar SimpleRREQ.host[3].lo0.lo 	passedUpPk:count 	0
attr interpolationmode  none
attr source  packetSentToUpper
attr title  "packets passed to higher layer, count"
scalar SimpleRREQ.host[3].lo0.lo 	passedUpPk:sum(packetBytes) 	0
attr interpolationmode  none
attr source  packetSentToUpper
attr title  "packets passed to higher layer, sum(packetBytes)"
scalar SimpleRREQ.host[3].wlan[0].queue 	queueLength:max 	3
attr interpolationmode  sample-hold
attr title  "queue length, max"
scalar SimpleRREQ.host[3].wlan[0].queue 	queueLength:timeavg 	0.00013823385140917
attr interpolationmode  sample-hold
attr title  "queue length, timeavg"
statistic SimpleRREQ.host[3].wlan[0].queue 	queueingTime:histogram
field count 12203
field mean 1.3593429623125e-005
field stddev 5.4443362262966e-005
field sum 0.165880621691
field sqrsum 3.8422586989044e-005
field min 0
field max 0.00057583268
attr interpolationmode  none
attr title  "queueing time, histogram"
bin	-INF	0
bin	-0.0001919155945	0
bin	-0.00016632684856667	0
bin	-0.00014073810263333	0
bin	-0.0001151493567	0
bin	-8.9560610766667e-005	0
bin	-6.3971864833333e-005	0
bin	-3.83831189e-005	0
bin	-1.2794372966667e-005	11422
bin	1.2794372966667e-005	0
bin	3.83831189e-005	0
bin	6.3971864833333e-005	0
bin	8.9560610766667e-005	0
bin	0.0001151493567	0
bin	0.00014073810263333	0
bin	0.00016632684856667	537
bin	0.0001919155945	166
bin	0.00021750434043333	0
bin	0.00024309308636667	0
bin	0.0002686818323	0
bin	0.00029427057823333	0
bin	0.00031985932416667	0
bin	0.0003454480701	0
bin	0.00037103681603333	72
bin	0.00039662556196667	0
bin	0.0004222143079	0
bin	0.00044780305383333	0
bin	0.00047339179976667	0
bin	0.0004989805457	0
bin	0.00052456929163333	0
bin	0.00055015803756667	5
bin	0.0005757467835	1
scalar SimpleRREQ.host[3].wlan[0].queue 	dropPk:count 	0
attr interpolationmode  none
attr source  dropPkByQueue
attr title  "dropped packets, count"
scalar SimpleRREQ.host[3].wlan[0].queue 	dropPk:sum(packetBytes) 	0
attr interpolationmode  none
attr source  dropPkByQueue
attr title  "dropped packets, sum(packetBytes)"
scalar SimpleRREQ.host[3].wlan[0].queue 	rcvdPk:count 	12203
attr interpolationmode  none
attr title  "received packets, count"
scalar SimpleRREQ.host[3].wlan[0].queue 	rcvdPk:sum(packetBytes) 	341684
attr interpolationmode  none
attr title  "received packets, sum(packetBytes)"
scalar SimpleRREQ.host[3].wlan[0].mac 	droppedPkNotForUs:count 	0
attr interpolationmode  none
attr source  dropPkNotForUs
attr title  "packets dropped/not for us, count"
scalar SimpleRREQ.host[3].wlan[0].mac 	droppedPkNotForUs:sum(packetBytes) 	0
attr interpolationmode  none
attr source  dropPkNotForUs
attr title  "packets dropped/not for us, sum(packetBytes)"
scalar SimpleRREQ.host[3].wlan[0].mac 	rcvdPkFromHL:count 	12203
attr interpolationmode  none
attr source  packetReceivedFromUpper
attr title  "packets received from higher layer, count"
scalar SimpleRREQ.host[3].wlan[0].mac 	rcvdPkFromHL:sum(packetBytes) 	341684
attr interpolationmode  none
attr source  packetReceivedFromUpper
attr title  "packets received from higher layer, sum(packetBytes)"
scalar SimpleRREQ.host[3].wlan[0].mac 	passedUpPk:count 	85828
attr interpolationmode  none
attr source  packetSentToUpper
attr title  "packets passed to higher layer, count"
scalar SimpleRREQ.host[3].wlan[0].mac 	passedUpPk:sum(packetBytes) 	2403184
attr interpolationmode  none
attr source  packetSentToUpper
attr title  "packets passed to higher layer, sum(packetBytes)"
scalar SimpleRREQ.host[3].wlan[0].mac 	rcvdPkFromLL:count 	85828
attr interpolationmode  none
attr source  packetReceivedFromLower
attr title  "packets received from lower layer, count"
scalar SimpleRREQ.host[3].wlan[0].mac 	rcvdPkFromLL:sum(packetBytes) 	4119744
attr interpolationmode  none
attr source  packetReceivedFromLower
attr title  "packets received from lower layer, sum(packetBytes)"
scalar SimpleRREQ.host[3].wlan[0].mac 	sentDownPk:count 	12203
attr interpolationmode  none
attr source  packetSentToLower
attr title  "packets sent to lower layer, count"
scalar SimpleRREQ.host[3].wlan[0].mac 	sentDownPk:sum(packetBytes) 	585744
attr interpolationmode  none
attr source  packetSentToLower
attr title  "packets sent to lower layer, sum(packetBytes)"
statistic SimpleRREQ.host[3].wlan[0].radio 	symbolErrorRate:histogram
field count 85828
field mean 0.52641329169968
field stddev 0.49930475936964
field sum 45181
field sqrsum 45181
field min 0
field max 1
attr source  symbolErrorRate
attr title  "Symbol error rate, histogram"
bin	-INF	0
bin	-1	0
bin	0	40647
bin	1	45181
bin	2	0
statistic SimpleRREQ.host[3].wlan[0].radio 	bitErrorRate:histogram
field count 85828
field mean 0.52641329169968
field stddev 0.49930475936964
field sum 45181
field sqrsum 45181
field min 0
field max 1
attr source  bitErrorRate
attr title  "Bit error rate, histogram"
bin	-INF	0
bin	-1	0
bin	0	40647
bin	1	45181
bin	2	0
statistic SimpleRREQ.host[3].wlan[0].radio 	packetErrorRate:histogram
field count 85828
field mean 0.52641329169968
field stddev 0.49930475936964
field sum 45181
field sqrsum 45181
field min 0
field max 1
attr source  packetErrorRate
attr title  "Packet error rate, histogram"
bin	-INF	0
bin	-1	0
bin	0	40647
bin	1	45181
bin	2	0
statistic SimpleRREQ.host[3].wlan[0].radio 	minSNIR:histogram
field count 85828
field mean nan
field stddev nan
field sum nan
field sqrsum nan
field min nan
field max nan
attr source  minSNIR
attr title  "Min SNIR, histogram"
bin	-INF	85828
bin	nan	0
bin	nan	0
bin	nan	0
bin	nan	0
bin	nan	0
bin	nan	0
bin	nan	0
bin	nan	0
bin	nan	0
bin	nan	0
bin	nan	0
bin	nan	0
bin	nan	0
bin	nan	0
bin	nan	0
bin	nan	0
bin	nan	0
bin	nan	0
bin	nan	0
bin	nan	0
bin	nan	0
bin	nan	0
bin	nan	0
bin	nan	0
bin	nan	0
bin	nan	0
bin	nan	0
bin	nan	0
bin	nan	0
bin	nan	0
bin	nan	0
scalar SimpleRREQ.host[3].wlan[0].radio 	transmissionState:count 	24406
attr interpolationmode  sample-hold
attr source  transmissionStateChanged
attr title  "Radio transmission state, count"
scalar SimpleRREQ.host[3].wlan[0].radio 	receptionState:count 	171659
attr interpolationmode  sample-hold
attr source  receptionStateChanged
attr title  "Radio reception state, count"
scalar SimpleRREQ.host[3].wlan[0].radio 	radioMode:count 	2
attr interpolationmode  sample-hold
attr source  radioModeChanged
attr title  "Radio mode, count"
scalar SimpleRREQ.host[3].pingApp[0] 	"Pings sent" 	1196
scalar SimpleRREQ.host[3].pingApp[0] 	"ping loss rate (%)" 	100
scalar SimpleRREQ.host[3].pingApp[0] 	"ping out-of-order rate (%)" 	0
scalar SimpleRREQ.host[3].pingApp[0] 	numOutOfOrderArrivals:last 	nan
attr interpolationmode  none
attr title  "ping out-of-order arrivals, last"
scalar SimpleRREQ.host[3].pingApp[0] 	pingRxSeq:count 	0
attr interpolationmode  none
attr title  "ping rx seq, count"
scalar SimpleRREQ.host[3].pingApp[0] 	pingTxSeq:count 	1196
attr interpolationmode  none
attr title  "ping tx seq, count"
scalar SimpleRREQ.host[3].pingApp[0] 	numLost:last 	nan
attr interpolationmode  none
attr title  "pings lost, last"
statistic SimpleRREQ.host[3].pingApp[0] 	rtt:histogram
field count 0
field mean nan
field stddev nan
field sum 0
field sqrsum 0
field min nan
field max nan
attr interpolationmode  none
attr title  "ping round-trip time, histogram"
attr unit  s
bin	-INF	0
bin	-0.5	0
bin	-0.46666666666667	0
bin	-0.43333333333333	0
bin	-0.4	0
bin	-0.36666666666667	0
bin	-0.33333333333333	0
bin	-0.3	0
bin	-0.26666666666667	0
bin	-0.23333333333333	0
bin	-0.2	0
bin	-0.16666666666667	0
bin	-0.13333333333333	0
bin	-0.1	0
bin	-0.066666666666667	0
bin	-0.033333333333333	0
bin	0	0
bin	0.033333333333333	0
bin	0.066666666666667	0
bin	0.1	0
bin	0.13333333333333	0
bin	0.16666666666667	0
bin	0.2	0
bin	0.23333333333333	0
bin	0.26666666666667	0
bin	0.3	0
bin	0.33333333333333	0
bin	0.36666666666667	0
bin	0.4	0
bin	0.43333333333333	0
bin	0.46666666666667	0
bin	0.5	0
scalar SimpleRREQ.host[3].epf 	dataFwd:count 	234
attr interpolationmode  none
attr source  dataFwd
attr title  "Forward Data message, count"
scalar SimpleRREQ.host[3].epf 	dataDest:count 	277
attr interpolationmode  none
attr source  dataDest
attr title  "Received Data message on Destination, count"
scalar SimpleRREQ.host[3].epf 	dataRec:count 	9762
attr interpolationmode  none
attr source  dataRec
attr title  "Received Data message, count"
scalar SimpleRREQ.host[3].epf 	dataSent:count 	522
attr interpolationmode  none
attr source  dataSent
attr title  "Sent Data message, count"
scalar SimpleRREQ.host[3].epf 	destResp:count 	299
attr interpolationmode  none
attr source  destResp
attr title  "Response from destination, count"
scalar SimpleRREQ.host[3].epf 	destEnq:count 	299
attr interpolationmode  none
attr source  destEnq
attr title  "Enquire to Destination, count"
scalar SimpleRREQ.host[3].epf 	respNOkRec:count 	2431
attr interpolationmode  none
attr source  respNOkRec
attr title  "Received Not Ok Response message, count"
scalar SimpleRREQ.host[3].epf 	respNOkSent:count 	4670
attr interpolationmode  none
attr source  respNOkSent
attr title  "Sent Not Ok Response message, count"
scalar SimpleRREQ.host[3].epf 	respOkRec:count 	522
attr interpolationmode  none
attr source  respOkRec
attr title  "Received Ok Response message, count"
scalar SimpleRREQ.host[3].epf 	respOkSent:count 	1448
attr interpolationmode  none
attr source  respOkSent
attr title  "Sent Ok Response message, count"
scalar SimpleRREQ.host[3].epf 	respRec:count 	64815
attr interpolationmode  none
attr source  respRec
attr title  "Received Response message, count"
scalar SimpleRREQ.host[3].epf 	respSent:count 	0
attr interpolationmode  none
attr source  respSent
attr title  "Sent Response message, count"
scalar SimpleRREQ.host[3].epf 	enquireRec:count 	10452
attr interpolationmode  none
attr source  enquireRec
attr title  "Received Enquire message, count"
scalar SimpleRREQ.host[3].epf 	enquireSent:count 	350
attr interpolationmode  none
attr source  enquireSent
attr title  "Sent Enquire message, count"
scalar SimpleRREQ.host[3].epf 	rrep2Rec:count 	0
attr interpolationmode  none
attr source  rrep2Rec
attr title  "Received type 2 RREP, count"
scalar SimpleRREQ.host[3].epf 	rrep1Rec:count 	0
attr interpolationmode  none
attr source  rrep1Rec
attr title  "Received type 1 RREP, count"
scalar SimpleRREQ.host[3].epf 	rrepRec:count 	0
attr interpolationmode  none
attr source  rrepRec
attr title  "Received RREP, count"
scalar SimpleRREQ.host[3].epf 	rreq1Rec:count 	0
attr interpolationmode  none
attr source  rreq1Rec
attr title  "Received type 1 RREQ, count"
scalar SimpleRREQ.host[3].epf 	rreqRec:count 	0
attr interpolationmode  none
attr source  rreqRec
attr title  "Received RREQ, count"
scalar SimpleRREQ.host[3].epf 	rrepSent:count 	0
attr interpolationmode  none
attr source  rrepSent
attr title  "Sent RREP, count"
scalar SimpleRREQ.host[3].epf 	rreqSent:count 	0
attr interpolationmode  none
attr source  rreqSent
attr title  "Sent RREQ, count"
scalar SimpleRREQ.host[4].networkLayer.arp 	sentReply:count 	0
attr title  "ARP replies sent, count"
scalar SimpleRREQ.host[4].networkLayer.arp 	sentReq:count 	0
attr title  "ARP request sent, count"
scalar SimpleRREQ.host[4].networkLayer.arp 	failedARPResolution:count 	0
attr title  "ARP failed resolutions, count"
scalar SimpleRREQ.host[4].networkLayer.arp 	completedARPResolution:count 	0
attr title  "ARP completed resolutions, count"
scalar SimpleRREQ.host[4].networkLayer.arp 	initiatedARPResolution:count 	0
attr title  "ARP initiated resolutions, count"
scalar SimpleRREQ.host[4].lo0.lo 	droppedPkBitError:count 	0
attr interpolationmode  none
attr source  dropPkBitError
attr title  "packets dropped/bit error, count"
scalar SimpleRREQ.host[4].lo0.lo 	droppedPkBitError:sum(packetBytes) 	0
attr interpolationmode  none
attr source  dropPkBitError
attr title  "packets dropped/bit error, sum(packetBytes)"
scalar SimpleRREQ.host[4].lo0.lo 	rcvdPkFromHL:count 	0
attr interpolationmode  none
attr source  packetReceivedFromUpper
attr title  "packets received from higher layer, count"
scalar SimpleRREQ.host[4].lo0.lo 	rcvdPkFromHL:sum(packetBytes) 	0
attr interpolationmode  none
attr source  packetReceivedFromUpper
attr title  "packets received from higher layer, sum(packetBytes)"
scalar SimpleRREQ.host[4].lo0.lo 	passedUpPk:count 	0
attr interpolationmode  none
attr source  packetSentToUpper
attr title  "packets passed to higher layer, count"
scalar SimpleRREQ.host[4].lo0.lo 	passedUpPk:sum(packetBytes) 	0
attr interpolationmode  none
attr source  packetSentToUpper
attr title  "packets passed to higher layer, sum(packetBytes)"
scalar SimpleRREQ.host[4].wlan[0].queue 	queueLength:max 	3
attr interpolationmode  sample-hold
attr title  "queue length, max"
scalar SimpleRREQ.host[4].wlan[0].queue 	queueLength:timeavg 	0.00011922042399917
attr interpolationmode  sample-hold
attr title  "queue length, timeavg"
statistic SimpleRREQ.host[4].wlan[0].queue 	queueingTime:histogram
field count 12580
field mean 1.1372377487997e-005
field stddev 4.8585592111092e-005
field sum 0.143064508799
field sqrsum 3.1320464830116e-005
field min 0
field max 0.000575420803
attr interpolationmode  none
attr title  "queueing time, histogram"
bin	-INF	0
bin	-9.5995569e-005	0
bin	-8.31961598e-005	0
bin	-7.03967506e-005	0
bin	-5.75973414e-005	0
bin	-4.47979322e-005	0
bin	-3.1998523e-005	0
bin	-1.91991138e-005	0
bin	-6.3997046e-006	11886
bin	6.3997046e-006	0
bin	1.91991138e-005	0
bin	3.1998523e-005	0
bin	4.47979322e-005	0
bin	5.75973414e-005	0
bin	7.03967506e-005	0
bin	8.31961598e-005	0
bin	9.5995569e-005	0
bin	0.0001087949782	0
bin	0.0001215943874	0
bin	0.0001343937966	0
bin	0.0001471932058	0
bin	0.000159992615	0
bin	0.0001727920242	0
bin	0.0001855914334	643
bin	0.0001983908426	0
bin	0.0002111902518	0
bin	0.000223989661	0
bin	0.0002367890702	0
bin	0.0002495884794	0
bin	0.0002623878886	0
bin	0.0002751872978	0
bin	0.000287986707	51
scalar SimpleRREQ.host[4].wlan[0].queue 	dropPk:count 	0
attr interpolationmode  none
attr source  dropPkByQueue
attr title  "dropped packets, count"
scalar SimpleRREQ.host[4].wlan[0].queue 	dropPk:sum(packetBytes) 	0
attr interpolationmode  none
attr source  dropPkByQueue
attr title  "dropped packets, sum(packetBytes)"
scalar SimpleRREQ.host[4].wlan[0].queue 	rcvdPk:count 	12580
attr interpolationmode  none
attr title  "received packets, count"
scalar SimpleRREQ.host[4].wlan[0].queue 	rcvdPk:sum(packetBytes) 	352240
attr interpolationmode  none
attr title  "received packets, sum(packetBytes)"
scalar SimpleRREQ.host[4].wlan[0].mac 	droppedPkNotForUs:count 	0
attr interpolationmode  none
attr source  dropPkNotForUs
attr title  "packets dropped/not for us, count"
scalar SimpleRREQ.host[4].wlan[0].mac 	droppedPkNotForUs:sum(packetBytes) 	0
attr interpolationmode  none
attr source  dropPkNotForUs
attr title  "packets dropped/not for us, sum(packetBytes)"
scalar SimpleRREQ.host[4].wlan[0].mac 	rcvdPkFromHL:count 	12580
attr interpolationmode  none
attr source  packetReceivedFromUpper
attr title  "packets received from higher layer, count"
scalar SimpleRREQ.host[4].wlan[0].mac 	rcvdPkFromHL:sum(packetBytes) 	352240
attr interpolationmode  none
attr source  packetReceivedFromUpper
attr title  "packets received from higher layer, sum(packetBytes)"
scalar SimpleRREQ.host[4].wlan[0].mac 	passedUpPk:count 	82841
attr interpolationmode  none
attr source  packetSentToUpper
attr title  "packets passed to higher layer, count"
scalar SimpleRREQ.host[4].wlan[0].mac 	passedUpPk:sum(packetBytes) 	2319548
attr interpolationmode  none
attr source  packetSentToUpper
attr title  "packets passed to higher layer, sum(packetBytes)"
scalar SimpleRREQ.host[4].wlan[0].mac 	rcvdPkFromLL:count 	82841
attr interpolationmode  none
attr source  packetReceivedFromLower
attr title  "packets received from lower layer, count"
scalar SimpleRREQ.host[4].wlan[0].mac 	rcvdPkFromLL:sum(packetBytes) 	3976368
attr interpolationmode  none
attr source  packetReceivedFromLower
attr title  "packets received from lower layer, sum(packetBytes)"
scalar SimpleRREQ.host[4].wlan[0].mac 	sentDownPk:count 	12580
attr interpolationmode  none
attr source  packetSentToLower
attr title  "packets sent to lower layer, count"
scalar SimpleRREQ.host[4].wlan[0].mac 	sentDownPk:sum(packetBytes) 	603840
attr interpolationmode  none
attr source  packetSentToLower
attr title  "packets sent to lower layer, sum(packetBytes)"
statistic SimpleRREQ.host[4].wlan[0].radio 	symbolErrorRate:histogram
field count 82841
field mean 0.51569874820439
field stddev 0.4997565049057
field sum 42721
field sqrsum 42721
field min 0
field max 1
attr source  symbolErrorRate
attr title  "Symbol error rate, histogram"
bin	-INF	0
bin	-1	0
bin	0	40120
bin	1	42721
bin	2	0
statistic SimpleRREQ.host[4].wlan[0].radio 	bitErrorRate:histogram
field count 82841
field mean 0.51569874820439
field stddev 0.4997565049057
field sum 42721
field sqrsum 42721
field min 0
field max 1
attr source  bitErrorRate
attr title  "Bit error rate, histogram"
bin	-INF	0
bin	-1	0
bin	0	40120
bin	1	42721
bin	2	0
statistic SimpleRREQ.host[4].wlan[0].radio 	packetErrorRate:histogram
field count 82841
field mean 0.51569874820439
field stddev 0.4997565049057
field sum 42721
field sqrsum 42721
field min 0
field max 1
attr source  packetErrorRate
attr title  "Packet error rate, histogram"
bin	-INF	0
bin	-1	0
bin	0	40120
bin	1	42721
bin	2	0
statistic SimpleRREQ.host[4].wlan[0].radio 	minSNIR:histogram
field count 82841
field mean nan
field stddev nan
field sum nan
field sqrsum nan
field min nan
field max nan
attr source  minSNIR
attr title  "Min SNIR, histogram"
bin	-INF	82841
bin	nan	0
bin	nan	0
bin	nan	0
bin	nan	0
bin	nan	0
bin	nan	0
bin	nan	0
bin	nan	0
bin	nan	0
bin	nan	0
bin	nan	0
bin	nan	0
bin	nan	0
bin	nan	0
bin	nan	0
bin	nan	0
bin	nan	0
bin	nan	0
bin	nan	0
bin	nan	0
bin	nan	0
bin	nan	0
bin	nan	0
bin	nan	0
bin	nan	0
bin	nan	0
bin	nan	0
bin	nan	0
bin	nan	0
bin	nan	0
bin	nan	0
scalar SimpleRREQ.host[4].wlan[0].radio 	transmissionState:count 	25160
attr interpolationmode  sample-hold
attr source  transmissionStateChanged
attr title  "Radio transmission state, count"
scalar SimpleRREQ.host[4].wlan[0].radio 	receptionState:count 	165685
attr interpolationmode  sample-hold
attr source  receptionStateChanged
attr title  "Radio reception state, count"
scalar SimpleRREQ.host[4].wlan[0].radio 	radioMode:count 	2
attr interpolationmode  sample-hold
attr source  radioModeChanged
attr title  "Radio mode, count"
scalar SimpleRREQ.host[4].pingApp[0] 	"Pings sent" 	1197
scalar SimpleRREQ.host[4].pingApp[0] 	"ping loss rate (%)" 	100
scalar SimpleRREQ.host[4].pingApp[0] 	"ping out-of-order rate (%)" 	0
scalar SimpleRREQ.host[4].pingApp[0] 	numOutOfOrderArrivals:last 	nan
attr interpolationmode  none
attr title  "ping out-of-order arrivals, last"
scalar SimpleRREQ.host[4].pingApp[0] 	pingRxSeq:count 	0
attr interpolationmode  none
attr title  "ping rx seq, count"
scalar SimpleRREQ.host[4].pingApp[0] 	pingTxSeq:count 	1197
attr interpolationmode  none
attr title  "ping tx seq, count"
scalar SimpleRREQ.host[4].pingApp[0] 	numLost:last 	nan
attr interpolationmode  none
attr title  "pings lost, last"
statistic SimpleRREQ.host[4].pingApp[0] 	rtt:histogram
field count 0
field mean nan
field stddev nan
field sum 0
field sqrsum 0
field min nan
field max nan
attr interpolationmode  none
attr title  "ping round-trip time, histogram"
attr unit  s
bin	-INF	0
bin	-0.5	0
bin	-0.46666666666667	0
bin	-0.43333333333333	0
bin	-0.4	0
bin	-0.36666666666667	0
bin	-0.33333333333333	0
bin	-0.3	0
bin	-0.26666666666667	0
bin	-0.23333333333333	0
bin	-0.2	0
bin	-0.16666666666667	0
bin	-0.13333333333333	0
bin	-0.1	0
bin	-0.066666666666667	0
bin	-0.033333333333333	0
bin	0	0
bin	0.033333333333333	0
bin	0.066666666666667	0
bin	0.1	0
bin	0.13333333333333	0
bin	0.16666666666667	0
bin	0.2	0
bin	0.23333333333333	0
bin	0.26666666666667	0
bin	0.3	0
bin	0.33333333333333	0
bin	0.36666666666667	0
bin	0.4	0
bin	0.43333333333333	0
bin	0.46666666666667	0
bin	0.5	0
scalar SimpleRREQ.host[4].epf 	dataFwd:count 	378
attr interpolationmode  none
attr source  dataFwd
attr title  "Forward Data message, count"
scalar SimpleRREQ.host[4].epf 	dataDest:count 	373
attr interpolationmode  none
attr source  dataDest
attr title  "Received Data message on Destination, count"
scalar SimpleRREQ.host[4].epf 	dataRec:count 	10586
attr interpolationmode  none
attr source  dataRec
attr title  "Received Data message, count"
scalar SimpleRREQ.host[4].epf 	dataSent:count 	652
attr interpolationmode  none
attr source  dataSent
attr title  "Sent Data message, count"
scalar SimpleRREQ.host[4].epf 	destResp:count 	332
attr interpolationmode  none
attr source  destResp
attr title  "Response from destination, count"
scalar SimpleRREQ.host[4].epf 	destEnq:count 	332
attr interpolationmode  none
attr source  destEnq
attr title  "Enquire to Destination, count"
scalar SimpleRREQ.host[4].epf 	respNOkRec:count 	2978
attr interpolationmode  none
attr source  respNOkRec
attr title  "Received Not Ok Response message, count"
scalar SimpleRREQ.host[4].epf 	respNOkSent:count 	4170
attr interpolationmode  none
attr source  respNOkSent
attr title  "Sent Not Ok Response message, count"
scalar SimpleRREQ.host[4].epf 	respOkRec:count 	652
attr interpolationmode  none
attr source  respOkRec
attr title  "Received Ok Response message, count"
scalar SimpleRREQ.host[4].epf 	respOkSent:count 	1975
attr interpolationmode  none
attr source  respOkSent
attr title  "Sent Ok Response message, count"
scalar SimpleRREQ.host[4].epf 	respRec:count 	60879
attr interpolationmode  none
attr source  respRec
attr title  "Received Response message, count"
scalar SimpleRREQ.host[4].epf 	respSent:count 	0
attr interpolationmode  none
attr source  respSent
attr title  "Sent Response message, count"
scalar SimpleRREQ.host[4].epf 	enquireRec:count 	10577
attr interpolationmode  none
attr source  enquireRec
attr title  "Received Enquire message, count"
scalar SimpleRREQ.host[4].epf 	enquireSent:count 	475
attr interpolationmode  none
attr source  enquireSent
attr title  "Sent Enquire message, count"
scalar SimpleRREQ.host[4].epf 	rrep2Rec:count 	0
attr interpolationmode  none
attr source  rrep2Rec
attr title  "Received type 2 RREP, count"
scalar SimpleRREQ.host[4].epf 	rrep1Rec:count 	0
attr interpolationmode  none
attr source  rrep1Rec
attr title  "Received type 1 RREP, count"
scalar SimpleRREQ.host[4].epf 	rrepRec:count 	0
attr interpolationmode  none
attr source  rrepRec
attr title  "Received RREP, count"
scalar SimpleRREQ.host[4].epf 	rreq1Rec:count 	0
attr interpolationmode  none
attr source  rreq1Rec
attr title  "Received type 1 RREQ, count"
scalar SimpleRREQ.host[4].epf 	rreqRec:count 	0
attr interpolationmode  none
attr source  rreqRec
attr title  "Received RREQ, count"
scalar SimpleRREQ.host[4].epf 	rrepSent:count 	0
attr interpolationmode  none
attr source  rrepSent
attr title  "Sent RREP, count"
scalar SimpleRREQ.host[4].epf 	rreqSent:count 	0
attr interpolationmode  none
attr source  rreqSent
attr title  "Sent RREQ, count"
scalar SimpleRREQ.host[5].networkLayer.arp 	sentReply:count 	0
attr title  "ARP replies sent, count"
scalar SimpleRREQ.host[5].networkLayer.arp 	sentReq:count 	0
attr title  "ARP request sent, count"
scalar SimpleRREQ.host[5].networkLayer.arp 	failedARPResolution:count 	0
attr title  "ARP failed resolutions, count"
scalar SimpleRREQ.host[5].networkLayer.arp 	completedARPResolution:count 	0
attr title  "ARP completed resolutions, count"
scalar SimpleRREQ.host[5].networkLayer.arp 	initiatedARPResolution:count 	0
attr title  "ARP initiated resolutions, count"
scalar SimpleRREQ.host[5].lo0.lo 	droppedPkBitError:count 	0
attr interpolationmode  none
attr source  dropPkBitError
attr title  "packets dropped/bit error, count"
scalar SimpleRREQ.host[5].lo0.lo 	droppedPkBitError:sum(packetBytes) 	0
attr interpolationmode  none
attr source  dropPkBitError
attr title  "packets dropped/bit error, sum(packetBytes)"
scalar SimpleRREQ.host[5].lo0.lo 	rcvdPkFromHL:count 	0
attr interpolationmode  none
attr source  packetReceivedFromUpper
attr title  "packets received from higher layer, count"
scalar SimpleRREQ.host[5].lo0.lo 	rcvdPkFromHL:sum(packetBytes) 	0
attr interpolationmode  none
attr source  packetReceivedFromUpper
attr title  "packets received from higher layer, sum(packetBytes)"
scalar SimpleRREQ.host[5].lo0.lo 	passedUpPk:count 	0
attr interpolationmode  none
attr source  packetSentToUpper
attr title  "packets passed to higher layer, count"
scalar SimpleRREQ.host[5].lo0.lo 	passedUpPk:sum(packetBytes) 	0
attr interpolationmode  none
attr source  packetSentToUpper
attr title  "packets passed to higher layer, sum(packetBytes)"
scalar SimpleRREQ.host[5].wlan[0].queue 	queueLength:max 	4
attr interpolationmode  sample-hold
attr title  "queue length, max"
scalar SimpleRREQ.host[5].wlan[0].queue 	queueLength:timeavg 	0.00011971255188
attr interpolationmode  sample-hold
attr title  "queue length, timeavg"
statistic SimpleRREQ.host[5].wlan[0].queue 	queueingTime:histogram
field count 11494
field mean 1.249826537811e-005
field stddev 5.2278673531563e-005
field sum 0.143655062256
field sqrsum 3.3206494294568e-005
field min 0
field max 0.000767630848
attr interpolationmode  none
attr title  "queueing time, histogram"
bin	-INF	0
bin	-0.0001918871525	0
bin	-0.00016630219883333	0
bin	-0.00014071724516667	0
bin	-0.0001151322915	0
bin	-8.9547337833333e-005	0
bin	-6.3962384166667e-005	0
bin	-3.83774305e-005	0
bin	-1.2792476833333e-005	10813
bin	1.2792476833333e-005	0
bin	3.83774305e-005	0
bin	6.3962384166667e-005	0
bin	8.9547337833333e-005	0
bin	0.0001151322915	0
bin	0.00014071724516667	0
bin	0.00016630219883333	437
bin	0.0001918871525	184
bin	0.00021747210616667	0
bin	0.00024305705983333	0
bin	0.0002686420135	0
bin	0.00029422696716667	0
bin	0.00031981192083333	0
bin	0.0003453968745	0
bin	0.00037098182816667	53
bin	0.00039656678183333	0
bin	0.0004221517355	0
bin	0.00044773668916667	0
bin	0.00047332164283333	0
bin	0.0004989065965	0
bin	0.00052449155016667	0
bin	0.00055007650383333	2
bin	0.0005756614575	5
scalar SimpleRREQ.host[5].wlan[0].queue 	dropPk:count 	0
attr interpolationmode  none
attr source  dropPkByQueue
attr title  "dropped packets, count"
scalar SimpleRREQ.host[5].wlan[0].queue 	dropPk:sum(packetBytes) 	0
attr interpolationmode  none
attr source  dropPkByQueue
attr title  "dropped packets, sum(packetBytes)"
scalar SimpleRREQ.host[5].wlan[0].queue 	rcvdPk:count 	11494
attr interpolationmode  none
attr title  "received packets, count"
scalar SimpleRREQ.host[5].wlan[0].queue 	rcvdPk:sum(packetBytes) 	321832
attr interpolationmode  none
attr title  "received packets, sum(packetBytes)"
scalar SimpleRREQ.host[5].wlan[0].mac 	droppedPkNotForUs:count 	0
attr interpolationmode  none
attr source  dropPkNotForUs
attr title  "packets dropped/not for us, count"
scalar SimpleRREQ.host[5].wlan[0].mac 	droppedPkNotForUs:sum(packetBytes) 	0
attr interpolationmode  none
attr source  dropPkNotForUs
attr title  "packets dropped/not for us, sum(packetBytes)"
scalar SimpleRREQ.host[5].wlan[0].mac 	rcvdPkFromHL:count 	11494
attr interpolationmode  none
attr source  packetReceivedFromUpper
attr title  "packets received from higher layer, count"
scalar SimpleRREQ.host[5].wlan[0].mac 	rcvdPkFromHL:sum(packetBytes) 	321832
attr interpolationmode  none
attr source  packetReceivedFromUpper
attr title  "packets received from higher layer, sum(packetBytes)"
scalar SimpleRREQ.host[5].wlan[0].mac 	passedUpPk:count 	82409
attr interpolationmode  none
attr source  packetSentToUpper
attr title  "packets passed to higher layer, count"
scalar SimpleRREQ.host[5].wlan[0].mac 	passedUpPk:sum(packetBytes) 	2307452
attr interpolationmode  none
attr source  packetSentToUpper
attr title  "packets passed to higher layer, sum(packetBytes)"
scalar SimpleRREQ.host[5].wlan[0].mac 	rcvdPkFromLL:count 	82409
attr interpolationmode  none
attr source  packetReceivedFromLower
attr title  "packets received from lower layer, count"
scalar SimpleRREQ.host[5].wlan[0].mac 	rcvdPkFromLL:sum(packetBytes) 	3955632
attr interpolationmode  none
attr source  packetReceivedFromLower
attr title  "packets received from lower layer, sum(packetBytes)"
scalar SimpleRREQ.host[5].wlan[0].mac 	sentDownPk:count 	11494
attr interpolationmode  none
attr source  packetSentToLower
attr title  "packets sent to lower layer, count"
scalar SimpleRREQ.host[5].wlan[0].mac 	sentDownPk:sum(packetBytes) 	551712
attr interpolationmode  none
attr source  packetSentToLower
attr title  "packets sent to lower layer, sum(packetBytes)"
statistic SimpleRREQ.host[5].wlan[0].radio 	symbolErrorRate:histogram
field count 82409
field mean 0.51494375614314
field stddev 0.49977966658169
field sum 42436
field sqrsum 42436
field min 0
field max 1
attr source  symbolErrorRate
attr title  "Symbol error rate, histogram"
bin	-INF	0
bin	-1	0
bin	0	39973
bin	1	42436
bin	2	0
statistic SimpleRREQ.host[5].wlan[0].radio 	bitErrorRate:histogram
field count 82409
field mean 0.51494375614314
field stddev 0.49977966658169
field sum 42436
field sqrsum 42436
field min 0
field max 1
attr source  bitErrorRate
attr title  "Bit error rate, histogram"
bin	-INF	0
bin	-1	0
bin	0	39973
bin	1	42436
bin	2	0
statistic SimpleRREQ.host[5].wlan[0].radio 	packetErrorRate:histogram
field count 82409
field mean 0.51494375614314
field stddev 0.49977966658169
field sum 42436
field sqrsum 42436
field min 0
field max 1
attr source  packetErrorRate
attr title  "Packet error rate, histogram"
bin	-INF	0
bin	-1	0
bin	0	39973
bin	1	42436
bin	2	0
statistic SimpleRREQ.host[5].wlan[0].radio 	minSNIR:histogram
field count 82409
field mean nan
field stddev nan
field sum nan
field sqrsum nan
field min nan
field max nan
attr source  minSNIR
attr title  "Min SNIR, histogram"
bin	-INF	82409
bin	nan	0
bin	nan	0
bin	nan	0
bin	nan	0
bin	nan	0
bin	nan	0
bin	nan	0
bin	nan	0
bin	nan	0
bin	nan	0
bin	nan	0
bin	nan	0
bin	nan	0
bin	nan	0
bin	nan	0
bin	nan	0
bin	nan	0
bin	nan	0
bin	nan	0
bin	nan	0
bin	nan	0
bin	nan	0
bin	nan	0
bin	nan	0
bin	nan	0
bin	nan	0
bin	nan	0
bin	nan	0
bin	nan	0
bin	nan	0
bin	nan	0
scalar SimpleRREQ.host[5].wlan[0].radio 	transmissionState:count 	22988
attr interpolationmode  sample-hold
attr source  transmissionStateChanged
attr title  "Radio transmission state, count"
scalar SimpleRREQ.host[5].wlan[0].radio 	receptionState:count 	164820
attr interpolationmode  sample-hold
attr source  receptionStateChanged
attr title  "Radio reception state, count"
scalar SimpleRREQ.host[5].wlan[0].radio 	radioMode:count 	2
attr interpolationmode  sample-hold
attr source  radioModeChanged
attr title  "Radio mode, count"
scalar SimpleRREQ.host[5].pingApp[0] 	"Pings sent" 	1198
scalar SimpleRREQ.host[5].pingApp[0] 	"ping loss rate (%)" 	100
scalar SimpleRREQ.host[5].pingApp[0] 	"ping out-of-order rate (%)" 	0
scalar SimpleRREQ.host[5].pingApp[0] 	numOutOfOrderArrivals:last 	nan
attr interpolationmode  none
attr title  "ping out-of-order arrivals, last"
scalar SimpleRREQ.host[5].pingApp[0] 	pingRxSeq:count 	0
attr interpolationmode  none
attr title  "ping rx seq, count"
scalar SimpleRREQ.host[5].pingApp[0] 	pingTxSeq:count 	1198
attr interpolationmode  none
attr title  "ping tx seq, count"
scalar SimpleRREQ.host[5].pingApp[0] 	numLost:last 	nan
attr interpolationmode  none
attr title  "pings lost, last"
statistic SimpleRREQ.host[5].pingApp[0] 	rtt:histogram
field count 0
field mean nan
field stddev nan
field sum 0
field sqrsum 0
field min nan
field max nan
attr interpolationmode  none
attr title  "ping round-trip time, histogram"
attr unit  s
bin	-INF	0
bin	-0.5	0
bin	-0.46666666666667	0
bin	-0.43333333333333	0
bin	-0.4	0
bin	-0.36666666666667	0
bin	-0.33333333333333	0
bin	-0.3	0
bin	-0.26666666666667	0
bin	-0.23333333333333	0
bin	-0.2	0
bin	-0.16666666666667	0
bin	-0.13333333333333	0
bin	-0.1	0
bin	-0.066666666666667	0
bin	-0.033333333333333	0
bin	0	0
bin	0.033333333333333	0
bin	0.066666666666667	0
bin	0.1	0
bin	0.13333333333333	0
bin	0.16666666666667	0
bin	0.2	0
bin	0.23333333333333	0
bin	0.26666666666667	0
bin	0.3	0
bin	0.33333333333333	0
bin	0.36666666666667	0
bin	0.4	0
bin	0.43333333333333	0
bin	0.46666666666667	0
bin	0.5	0
scalar SimpleRREQ.host[5].epf 	dataFwd:count 	147
attr interpolationmode  none
attr source  dataFwd
attr title  "Forward Data message, count"
scalar SimpleRREQ.host[5].epf 	dataDest:count 	283
attr interpolationmode  none
attr source  dataDest
attr title  "Received Data message on Destination, count"
scalar SimpleRREQ.host[5].epf 	dataRec:count 	9010
attr interpolationmode  none
attr source  dataRec
attr title  "Received Data message, count"
scalar SimpleRREQ.host[5].epf 	dataSent:count 	420
attr interpolationmode  none
attr source  dataSent
attr title  "Sent Data message, count"
scalar SimpleRREQ.host[5].epf 	destResp:count 	296
attr interpolationmode  none
attr source  destResp
attr title  "Response from destination, count"
scalar SimpleRREQ.host[5].epf 	destEnq:count 	296
attr interpolationmode  none
attr source  destEnq
attr title  "Enquire to Destination, count"
scalar SimpleRREQ.host[5].epf 	respNOkRec:count 	1969
attr interpolationmode  none
attr source  respNOkRec
attr title  "Received Not Ok Response message, count"
scalar SimpleRREQ.host[5].epf 	respNOkSent:count 	5237
attr interpolationmode  none
attr source  respNOkSent
attr title  "Sent Not Ok Response message, count"
scalar SimpleRREQ.host[5].epf 	respOkRec:count 	420
attr interpolationmode  none
attr source  respOkRec
attr title  "Received Ok Response message, count"
scalar SimpleRREQ.host[5].epf 	respOkSent:count 	1126
attr interpolationmode  none
attr source  respOkSent
attr title  "Sent Ok Response message, count"
scalar SimpleRREQ.host[5].epf 	respRec:count 	62763
attr interpolationmode  none
attr source  respRec
attr title  "Received Response message, count"
scalar SimpleRREQ.host[5].epf 	respSent:count 	0
attr interpolationmode  none
attr source  respSent
attr title  "Sent Response message, count"
scalar SimpleRREQ.host[5].epf 	enquireRec:count 	9837
attr interpolationmode  none
attr source  enquireRec
attr title  "Received Enquire message, count"
scalar SimpleRREQ.host[5].epf 	enquireSent:count 	258
attr interpolationmode  none
attr source  enquireSent
attr title  "Sent Enquire message, count"
scalar SimpleRREQ.host[5].epf 	rrep2Rec:count 	0
attr interpolationmode  none
attr source  rrep2Rec
attr title  "Received type 2 RREP, count"
scalar SimpleRREQ.host[5].epf 	rrep1Rec:count 	0
attr interpolationmode  none
attr source  rrep1Rec
attr title  "Received type 1 RREP, count"
scalar SimpleRREQ.host[5].epf 	rrepRec:count 	0
attr interpolationmode  none
attr source  rrepRec
attr title  "Received RREP, count"
scalar SimpleRREQ.host[5].epf 	rreq1Rec:count 	0
attr interpolationmode  none
attr source  rreq1Rec
attr title  "Received type 1 RREQ, count"
scalar SimpleRREQ.host[5].epf 	rreqRec:count 	0
attr interpolationmode  none
attr source  rreqRec
attr title  "Received RREQ, count"
scalar SimpleRREQ.host[5].epf 	rrepSent:count 	0
attr interpolationmode  none
attr source  rrepSent
attr title  "Sent RREP, count"
scalar SimpleRREQ.host[5].epf 	rreqSent:count 	0
attr interpolationmode  none
attr source  rreqSent
attr title  "Sent RREQ, count"
scalar SimpleRREQ.host[6].networkLayer.arp 	sentReply:count 	0
attr title  "ARP replies sent, count"
scalar SimpleRREQ.host[6].networkLayer.arp 	sentReq:count 	0
attr title  "ARP request sent, count"
scalar SimpleRREQ.host[6].networkLayer.arp 	failedARPResolution:count 	0
attr title  "ARP failed resolutions, count"
scalar SimpleRREQ.host[6].networkLayer.arp 	completedARPResolution:count 	0
attr title  "ARP completed resolutions, count"
scalar SimpleRREQ.host[6].networkLayer.arp 	initiatedARPResolution:count 	0
attr title  "ARP initiated resolutions, count"
scalar SimpleRREQ.host[6].lo0.lo 	droppedPkBitError:count 	0
attr interpolationmode  none
attr source  dropPkBitError
attr title  "packets dropped/bit error, count"
scalar SimpleRREQ.host[6].lo0.lo 	droppedPkBitError:sum(packetBytes) 	0
attr interpolationmode  none
attr source  dropPkBitError
attr title  "packets dropped/bit error, sum(packetBytes)"
scalar SimpleRREQ.host[6].lo0.lo 	rcvdPkFromHL:count 	0
attr interpolationmode  none
attr source  packetReceivedFromUpper
attr title  "packets received from higher layer, count"
scalar SimpleRREQ.host[6].lo0.lo 	rcvdPkFromHL:sum(packetBytes) 	0
attr interpolationmode  none
attr source  packetReceivedFromUpper
attr title  "packets received from higher layer, sum(packetBytes)"
scalar SimpleRREQ.host[6].lo0.lo 	passedUpPk:count 	0
attr interpolationmode  none
attr source  packetSentToUpper
attr title  "packets passed to higher layer, count"
scalar SimpleRREQ.host[6].lo0.lo 	passedUpPk:sum(packetBytes) 	0
attr interpolationmode  none
attr source  packetSentToUpper
attr title  "packets passed to higher layer, sum(packetBytes)"
scalar SimpleRREQ.host[6].wlan[0].queue 	queueLength:max 	3
attr interpolationmode  sample-hold
attr title  "queue length, max"
scalar SimpleRREQ.host[6].wlan[0].queue 	queueLength:timeavg 	0.00013266128417
attr interpolationmode  sample-hold
attr title  "queue length, timeavg"
statistic SimpleRREQ.host[6].wlan[0].queue 	queueingTime:histogram
field count 12178
field mean 1.3072223764493e-005
field stddev 5.280591953488e-005
field sum 0.159193541004
field sqrsum 3.603615357437e-005
field min 0
field max 0.000575596523
attr interpolationmode  none
attr title  "queueing time, histogram"
bin	-INF	0
bin	-9.59950705e-005	0
bin	-8.3195727766667e-005	0
bin	-7.0396385033333e-005	0
bin	-5.75970423e-005	0
bin	-4.4797699566667e-005	0
bin	-3.1998356833333e-005	0
bin	-1.91990141e-005	0
bin	-6.3996713666667e-006	11419
bin	6.3996713666667e-006	0
bin	1.91990141e-005	0
bin	3.1998356833333e-005	0
bin	4.4797699566667e-005	0
bin	5.75970423e-005	0
bin	7.0396385033333e-005	0
bin	8.3195727766667e-005	0
bin	9.59950705e-005	0
bin	0.00010879441323333	0
bin	0.00012159375596667	0
bin	0.0001343930987	0
bin	0.00014719244143333	0
bin	0.00015999178416667	0
bin	0.0001727911269	0
bin	0.00018559046963333	692
bin	0.00019838981236667	0
bin	0.0002111891551	0
bin	0.00022398849783333	0
bin	0.00023678784056667	0
bin	0.0002495871833	0
bin	0.00026238652603333	0
bin	0.00027518586876667	0
bin	0.0002879852115	67
scalar SimpleRREQ.host[6].wlan[0].queue 	dropPk:count 	0
attr interpolationmode  none
attr source  dropPkByQueue
attr title  "dropped packets, count"
scalar SimpleRREQ.host[6].wlan[0].queue 	dropPk:sum(packetBytes) 	0
attr interpolationmode  none
attr source  dropPkByQueue
attr title  "dropped packets, sum(packetBytes)"
scalar SimpleRREQ.host[6].wlan[0].queue 	rcvdPk:count 	12178
attr interpolationmode  none
attr title  "received packets, count"
scalar SimpleRREQ.host[6].wlan[0].queue 	rcvdPk:sum(packetBytes) 	340984
attr interpolationmode  none
attr title  "received packets, sum(packetBytes)"
scalar SimpleRREQ.host[6].wlan[0].mac 	droppedPkNotForUs:count 	0
attr interpolationmode  none
attr source  dropPkNotForUs
attr title  "packets dropped/not for us, count"
[...]
attr title  "packets passed to higher layer, count"
scalar SimpleRREQ.host[28].wlan[0].mac 	passedUpPk:sum(packetBytes) 	2509752
attr interpolationmode  none
attr source  packetSentToUpper
attr title  "packets passed to higher layer, sum(packetBytes)"
scalar SimpleRREQ.host[28].wlan[0].mac 	rcvdPkFromLL:count 	89634
attr interpolationmode  none
attr source  packetReceivedFromLower
attr title  "packets received from lower layer, count"
scalar SimpleRREQ.host[28].wlan[0].mac 	rcvdPkFromLL:sum(packetBytes) 	4302432
attr interpolationmode  none
attr source  packetReceivedFromLower
attr title  "packets received from lower layer, sum(packetBytes)"
scalar SimpleRREQ.host[28].wlan[0].mac 	sentDownPk:count 	12993
attr interpolationmode  none
attr source  packetSentToLower
attr title  "packets sent to lower layer, count"
scalar SimpleRREQ.host[28].wlan[0].mac 	sentDownPk:sum(packetBytes) 	623664
attr interpolationmode  none
attr source  packetSentToLower
attr title  "packets sent to lower layer, sum(packetBytes)"
statistic SimpleRREQ.host[28].wlan[0].radio 	symbolErrorRate:histogram
field count 89634
field mean 0.54092197157329
field stddev 0.49832535828606
field sum 48485
field sqrsum 48485
field min 0
field max 1
attr source  symbolErrorRate
attr title  "Symbol error rate, histogram"
bin	-INF	0
bin	-1	0
bin	0	41149
bin	1	48485
bin	2	0
statistic SimpleRREQ.host[28].wlan[0].radio 	bitErrorRate:histogram
field count 89634
field mean 0.54092197157329
field stddev 0.49832535828606
field sum 48485
field sqrsum 48485
field min 0
field max 1
attr source  bitErrorRate
attr title  "Bit error rate, histogram"
bin	-INF	0
bin	-1	0
bin	0	41149
bin	1	48485
bin	2	0
statistic SimpleRREQ.host[28].wlan[0].radio 	packetErrorRate:histogram
field count 89634
field mean 0.54092197157329
field stddev 0.49832535828606
field sum 48485
field sqrsum 48485
field min 0
field max 1
attr source  packetErrorRate
attr title  "Packet error rate, histogram"
bin	-INF	0
bin	-1	0
bin	0	41149
bin	1	48485
bin	2	0
statistic SimpleRREQ.host[28].wlan[0].radio 	minSNIR:histogram
field count 89634
field mean nan
field stddev nan
field sum nan
field sqrsum nan
field min nan
field max nan
attr source  minSNIR
attr title  "Min SNIR, histogram"
bin	-INF	89634
bin	nan	0
bin	nan	0
bin	nan	0
bin	nan	0
bin	nan	0
bin	nan	0
bin	nan	0
bin	nan	0
bin	nan	0
bin	nan	0
bin	nan	0
bin	nan	0
bin	nan	0
bin	nan	0
bin	nan	0
bin	nan	0
bin	nan	0
bin	nan	0
bin	nan	0
bin	nan	0
bin	nan	0
bin	nan	0
bin	nan	0
bin	nan	0
bin	nan	0
bin	nan	0
bin	nan	0
bin	nan	0
bin	nan	0
bin	nan	0
bin	nan	0
scalar SimpleRREQ.host[28].wlan[0].radio 	transmissionState:count 	25986
attr interpolationmode  sample-hold
attr source  transmissionStateChanged
attr title  "Radio transmission state, count"
scalar SimpleRREQ.host[28].wlan[0].radio 	receptionState:count 	179270
attr interpolationmode  sample-hold
attr source  receptionStateChanged
attr title  "Radio reception state, count"
scalar SimpleRREQ.host[28].wlan[0].radio 	radioMode:count 	2
attr interpolationmode  sample-hold
attr source  radioModeChanged
attr title  "Radio mode, count"
scalar SimpleRREQ.host[28].pingApp[0] 	"Pings sent" 	1199
scalar SimpleRREQ.host[28].pingApp[0] 	"ping loss rate (%)" 	100
scalar SimpleRREQ.host[28].pingApp[0] 	"ping out-of-order rate (%)" 	0
scalar SimpleRREQ.host[28].pingApp[0] 	numOutOfOrderArrivals:last 	nan
attr interpolationmode  none
attr title  "ping out-of-order arrivals, last"
scalar SimpleRREQ.host[28].pingApp[0] 	pingRxSeq:count 	0
attr interpolationmode  none
attr title  "ping rx seq, count"
scalar SimpleRREQ.host[28].pingApp[0] 	pingTxSeq:count 	1199
attr interpolationmode  none
attr title  "ping tx seq, count"
scalar SimpleRREQ.host[28].pingApp[0] 	numLost:last 	nan
attr interpolationmode  none
attr title  "pings lost, last"
statistic SimpleRREQ.host[28].pingApp[0] 	rtt:histogram
field count 0
field mean nan
field stddev nan
field sum 0
field sqrsum 0
field min nan
field max nan
attr interpolationmode  none
attr title  "ping round-trip time, histogram"
attr unit  s
bin	-INF	0
bin	-0.5	0
bin	-0.46666666666667	0
bin	-0.43333333333333	0
bin	-0.4	0
bin	-0.36666666666667	0
bin	-0.33333333333333	0
bin	-0.3	0
bin	-0.26666666666667	0
bin	-0.23333333333333	0
bin	-0.2	0
bin	-0.16666666666667	0
bin	-0.13333333333333	0
bin	-0.1	0
bin	-0.066666666666667	0
bin	-0.033333333333333	0
bin	0	0
bin	0.033333333333333	0
bin	0.066666666666667	0
bin	0.1	0
bin	0.13333333333333	0
bin	0.16666666666667	0
bin	0.2	0
bin	0.23333333333333	0
bin	0.26666666666667	0
bin	0.3	0
bin	0.33333333333333	0
bin	0.36666666666667	0
bin	0.4	0
bin	0.43333333333333	0
bin	0.46666666666667	0
bin	0.5	0
scalar SimpleRREQ.host[28].epf 	dataFwd:count 	201
attr interpolationmode  none
attr source  dataFwd
attr title  "Forward Data message, count"
scalar SimpleRREQ.host[28].epf 	dataDest:count 	385
attr interpolationmode  none
attr source  dataDest
attr title  "Received Data message on Destination, count"
scalar SimpleRREQ.host[28].epf 	dataRec:count 	11038
attr interpolationmode  none
attr source  dataRec
attr title  "Received Data message, count"
scalar SimpleRREQ.host[28].epf 	dataSent:count 	349
attr interpolationmode  none
attr source  dataSent
attr title  "Sent Data message, count"
scalar SimpleRREQ.host[28].epf 	destResp:count 	349
attr interpolationmode  none
attr source  destResp
attr title  "Response from destination, count"
scalar SimpleRREQ.host[28].epf 	destEnq:count 	349
attr interpolationmode  none
attr source  destEnq
attr title  "Enquire to Destination, count"
scalar SimpleRREQ.host[28].epf 	respNOkRec:count 	1884
attr interpolationmode  none
attr source  respNOkRec
attr title  "Received Not Ok Response message, count"
scalar SimpleRREQ.host[28].epf 	respNOkSent:count 	5380
attr interpolationmode  none
attr source  respNOkSent
attr title  "Sent Not Ok Response message, count"
scalar SimpleRREQ.host[28].epf 	respOkRec:count 	349
attr interpolationmode  none
attr source  respOkRec
attr title  "Received Ok Response message, count"
scalar SimpleRREQ.host[28].epf 	respOkSent:count 	1696
attr interpolationmode  none
attr source  respOkSent
attr title  "Sent Ok Response message, count"
scalar SimpleRREQ.host[28].epf 	respRec:count 	66400
attr interpolationmode  none
attr source  respRec
attr title  "Received Response message, count"
scalar SimpleRREQ.host[28].epf 	respSent:count 	0
attr interpolationmode  none
attr source  respSent
attr title  "Sent Response message, count"
scalar SimpleRREQ.host[28].epf 	enquireRec:count 	11237
attr interpolationmode  none
attr source  enquireRec
attr title  "Received Enquire message, count"
scalar SimpleRREQ.host[28].epf 	enquireSent:count 	349
attr interpolationmode  none
attr source  enquireSent
attr title  "Sent Enquire message, count"
scalar SimpleRREQ.host[28].epf 	rrep2Rec:count 	0
attr interpolationmode  none
attr source  rrep2Rec
attr title  "Received type 2 RREP, count"
scalar SimpleRREQ.host[28].epf 	rrep1Rec:count 	0
attr interpolationmode  none
attr source  rrep1Rec
attr title  "Received type 1 RREP, count"
scalar SimpleRREQ.host[28].epf 	rrepRec:count 	0
attr interpolationmode  none
attr source  rrepRec
attr title  "Received RREP, count"
scalar SimpleRREQ.host[28].epf 	rreq1Rec:count 	0
attr interpolationmode  none
attr source  rreq1Rec
attr title  "Received type 1 RREQ, count"
scalar SimpleRREQ.host[28].epf 	rreqRec:count 	0
attr interpolationmode  none
attr source  rreqRec
attr title  "Received RREQ, count"
scalar SimpleRREQ.host[28].epf 	rrepSent:count 	0
attr interpolationmode  none
attr source  rrepSent
attr title  "Sent RREP, count"
scalar SimpleRREQ.host[28].epf 	rreqSent:count 	0
attr interpolationmode  none
attr source  rreqSent
attr title  "Sent RREQ, count"
scalar SimpleRREQ.host[29].networkLayer.arp 	sentReply:count 	0
attr title  "ARP replies sent, count"
scalar SimpleRREQ.host[29].networkLayer.arp 	sentReq:count 	0
attr title  "ARP request sent, count"
scalar SimpleRREQ.host[29].networkLayer.arp 	failedARPResolution:count 	0
attr title  "ARP failed resolutions, count"
scalar SimpleRREQ.host[29].networkLayer.arp 	completedARPResolution:count 	0
attr title  "ARP completed resolutions, count"
scalar SimpleRREQ.host[29].networkLayer.arp 	initiatedARPResolution:count 	0
attr title  "ARP initiated resolutions, count"
scalar SimpleRREQ.host[29].lo0.lo 	droppedPkBitError:count 	0
attr interpolationmode  none
attr source  dropPkBitError
attr title  "packets dropped/bit error, count"
scalar SimpleRREQ.host[29].lo0.lo 	droppedPkBitError:sum(packetBytes) 	0
attr interpolationmode  none
attr source  dropPkBitError
attr title  "packets dropped/bit error, sum(packetBytes)"
scalar SimpleRREQ.host[29].lo0.lo 	rcvdPkFromHL:count 	0
attr interpolationmode  none
attr source  packetReceivedFromUpper
attr title  "packets received from higher layer, count"
scalar SimpleRREQ.host[29].lo0.lo 	rcvdPkFromHL:sum(packetBytes) 	0
attr interpolationmode  none
attr source  packetReceivedFromUpper
attr title  "packets received from higher layer, sum(packetBytes)"
scalar SimpleRREQ.host[29].lo0.lo 	passedUpPk:count 	0
attr interpolationmode  none
attr source  packetSentToUpper
attr title  "packets passed to higher layer, count"
scalar SimpleRREQ.host[29].lo0.lo 	passedUpPk:sum(packetBytes) 	0
attr interpolationmode  none
attr source  packetSentToUpper
attr title  "packets passed to higher layer, sum(packetBytes)"
scalar SimpleRREQ.host[29].wlan[0].queue 	queueLength:max 	4
attr interpolationmode  sample-hold
attr title  "queue length, max"
scalar SimpleRREQ.host[29].wlan[0].queue 	queueLength:timeavg 	0.00012897847637167
attr interpolationmode  sample-hold
attr title  "queue length, timeavg"
statistic SimpleRREQ.host[29].wlan[0].queue 	queueingTime:histogram
field count 12408
field mean 1.2473740461476e-005
field stddev 5.0966168616649e-005
field sum 0.154774171646
field sqrsum 3.4158419958569e-005
field min 0
field max 0.000767812614
attr interpolationmode  none
attr title  "queueing time, histogram"
bin	-INF	0
bin	-0.000191890699	0
bin	-0.00016630527246667	0
bin	-0.00014071984593333	0
bin	-0.0001151344194	0
bin	-8.9548992866667e-005	0
bin	-6.3963566333333e-005	0
bin	-3.83781398e-005	0
bin	-1.2792713266667e-005	11657
bin	1.2792713266667e-005	0
bin	3.83781398e-005	0
bin	6.3963566333333e-005	0
bin	8.9548992866667e-005	0
bin	0.0001151344194	0
bin	0.00014071984593333	0
bin	0.00016630527246667	509
bin	0.000191890699	190
bin	0.00021747612553333	0
bin	0.00024306155206667	0
bin	0.0002686469786	0
bin	0.00029423240513333	0
bin	0.00031981783166667	0
bin	0.0003454032582	0
bin	0.00037098868473333	49
bin	0.00039657411126667	0
bin	0.0004221595378	0
bin	0.00044774496433333	0
bin	0.00047333039086667	0
bin	0.0004989158174	0
bin	0.00052450124393333	0
bin	0.00055008667046667	1
bin	0.000575672097	2
scalar SimpleRREQ.host[29].wlan[0].queue 	dropPk:count 	0
attr interpolationmode  none
attr source  dropPkByQueue
attr title  "dropped packets, count"
scalar SimpleRREQ.host[29].wlan[0].queue 	dropPk:sum(packetBytes) 	0
attr interpolationmode  none
attr source  dropPkByQueue
attr title  "dropped packets, sum(packetBytes)"
scalar SimpleRREQ.host[29].wlan[0].queue 	rcvdPk:count 	12408
attr interpolationmode  none
attr title  "received packets, count"
scalar SimpleRREQ.host[29].wlan[0].queue 	rcvdPk:sum(packetBytes) 	347424
attr interpolationmode  none
attr title  "received packets, sum(packetBytes)"
scalar SimpleRREQ.host[29].wlan[0].mac 	droppedPkNotForUs:count 	0
attr interpolationmode  none
attr source  dropPkNotForUs
attr title  "packets dropped/not for us, count"
scalar SimpleRREQ.host[29].wlan[0].mac 	droppedPkNotForUs:sum(packetBytes) 	0
attr interpolationmode  none
attr source  dropPkNotForUs
attr title  "packets dropped/not for us, sum(packetBytes)"
scalar SimpleRREQ.host[29].wlan[0].mac 	rcvdPkFromHL:count 	12408
attr interpolationmode  none
attr source  packetReceivedFromUpper
attr title  "packets received from higher layer, count"
scalar SimpleRREQ.host[29].wlan[0].mac 	rcvdPkFromHL:sum(packetBytes) 	347424
attr interpolationmode  none
attr source  packetReceivedFromUpper
attr title  "packets received from higher layer, sum(packetBytes)"
scalar SimpleRREQ.host[29].wlan[0].mac 	passedUpPk:count 	87485
attr interpolationmode  none
attr source  packetSentToUpper
attr title  "packets passed to higher layer, count"
scalar SimpleRREQ.host[29].wlan[0].mac 	passedUpPk:sum(packetBytes) 	2449580
attr interpolationmode  none
attr source  packetSentToUpper
attr title  "packets passed to higher layer, sum(packetBytes)"
scalar SimpleRREQ.host[29].wlan[0].mac 	rcvdPkFromLL:count 	87485
attr interpolationmode  none
attr source  packetReceivedFromLower
attr title  "packets received from lower layer, count"
scalar SimpleRREQ.host[29].wlan[0].mac 	rcvdPkFromLL:sum(packetBytes) 	4199280
attr interpolationmode  none
attr source  packetReceivedFromLower
attr title  "packets received from lower layer, sum(packetBytes)"
scalar SimpleRREQ.host[29].wlan[0].mac 	sentDownPk:count 	12408
attr interpolationmode  none
attr source  packetSentToLower
attr title  "packets sent to lower layer, count"
scalar SimpleRREQ.host[29].wlan[0].mac 	sentDownPk:sum(packetBytes) 	595584
attr interpolationmode  none
attr source  packetSentToLower
attr title  "packets sent to lower layer, sum(packetBytes)"
statistic SimpleRREQ.host[29].wlan[0].radio 	symbolErrorRate:histogram
field count 87485
field mean 0.53670915014002
field stddev 0.49865346740786
field sum 46954
field sqrsum 46954
field min 0
field max 1
attr source  symbolErrorRate
attr title  "Symbol error rate, histogram"
bin	-INF	0
bin	-1	0
bin	0	40531
bin	1	46954
bin	2	0
statistic SimpleRREQ.host[29].wlan[0].radio 	bitErrorRate:histogram
field count 87485
field mean 0.53670915014002
field stddev 0.49865346740786
field sum 46954
field sqrsum 46954
field min 0
field max 1
attr source  bitErrorRate
attr title  "Bit error rate, histogram"
bin	-INF	0
bin	-1	0
bin	0	40531
bin	1	46954
bin	2	0
statistic SimpleRREQ.host[29].wlan[0].radio 	packetErrorRate:histogram
field count 87485
field mean 0.53670915014002
field stddev 0.49865346740786
field sum 46954
field sqrsum 46954
field min 0
field max 1
attr source  packetErrorRate
attr title  "Packet error rate, histogram"
bin	-INF	0
bin	-1	0
bin	0	40531
bin	1	46954
bin	2	0
statistic SimpleRREQ.host[29].wlan[0].radio 	minSNIR:histogram
field count 87485
field mean nan
field stddev nan
field sum nan
field sqrsum nan
field min nan
field max nan
attr source  minSNIR
attr title  "Min SNIR, histogram"
bin	-INF	87485
bin	nan	0
bin	nan	0
bin	nan	0
bin	nan	0
bin	nan	0
bin	nan	0
bin	nan	0
bin	nan	0
bin	nan	0
bin	nan	0
bin	nan	0
bin	nan	0
bin	nan	0
bin	nan	0
bin	nan	0
bin	nan	0
bin	nan	0
bin	nan	0
bin	nan	0
bin	nan	0
bin	nan	0
bin	nan	0
bin	nan	0
bin	nan	0
bin	nan	0
bin	nan	0
bin	nan	0
bin	nan	0
bin	nan	0
bin	nan	0
bin	nan	0
scalar SimpleRREQ.host[29].wlan[0].radio 	transmissionState:count 	24816
attr interpolationmode  sample-hold
attr source  transmissionStateChanged
attr title  "Radio transmission state, count"
scalar SimpleRREQ.host[29].wlan[0].radio 	receptionState:count 	174975
attr interpolationmode  sample-hold
attr source  receptionStateChanged
attr title  "Radio reception state, count"
scalar SimpleRREQ.host[29].wlan[0].radio 	radioMode:count 	2
attr interpolationmode  sample-hold
attr source  radioModeChanged
attr title  "Radio mode, count"
scalar SimpleRREQ.host[29].pingApp[0] 	"Pings sent" 	1199
scalar SimpleRREQ.host[29].pingApp[0] 	"ping loss rate (%)" 	100
scalar SimpleRREQ.host[29].pingApp[0] 	"ping out-of-order rate (%)" 	0
scalar SimpleRREQ.host[29].pingApp[0] 	numOutOfOrderArrivals:last 	nan
attr interpolationmode  none
attr title  "ping out-of-order arrivals, last"
scalar SimpleRREQ.host[29].pingApp[0] 	pingRxSeq:count 	0
attr interpolationmode  none
attr title  "ping rx seq, count"
scalar SimpleRREQ.host[29].pingApp[0] 	pingTxSeq:count 	1199
attr interpolationmode  none
attr title  "ping tx seq, count"
scalar SimpleRREQ.host[29].pingApp[0] 	numLost:last 	nan
attr interpolationmode  none
attr title  "pings lost, last"
statistic SimpleRREQ.host[29].pingApp[0] 	rtt:histogram
field count 0
field mean nan
field stddev nan
field sum 0
field sqrsum 0
field min nan
field max nan
attr interpolationmode  none
attr title  "ping round-trip time, histogram"
attr unit  s
bin	-INF	0
bin	-0.5	0
bin	-0.46666666666667	0
bin	-0.43333333333333	0
bin	-0.4	0
bin	-0.36666666666667	0
bin	-0.33333333333333	0
bin	-0.3	0
bin	-0.26666666666667	0
bin	-0.23333333333333	0
bin	-0.2	0
bin	-0.16666666666667	0
bin	-0.13333333333333	0
bin	-0.1	0
bin	-0.066666666666667	0
bin	-0.033333333333333	0
bin	0	0
bin	0.033333333333333	0
bin	0.066666666666667	0
bin	0.1	0
bin	0.13333333333333	0
bin	0.16666666666667	0
bin	0.2	0
bin	0.23333333333333	0
bin	0.26666666666667	0
bin	0.3	0
bin	0.33333333333333	0
bin	0.36666666666667	0
bin	0.4	0
bin	0.43333333333333	0
bin	0.46666666666667	0
bin	0.5	0
scalar SimpleRREQ.host[29].epf 	dataFwd:count 	205
attr interpolationmode  none
attr source  dataFwd
attr title  "Forward Data message, count"
scalar SimpleRREQ.host[29].epf 	dataDest:count 	275
attr interpolationmode  none
attr source  dataDest
attr title  "Received Data message on Destination, count"
scalar SimpleRREQ.host[29].epf 	dataRec:count 	10611
attr interpolationmode  none
attr source  dataRec
attr title  "Received Data message, count"
scalar SimpleRREQ.host[29].epf 	dataSent:count 	358
attr interpolationmode  none
attr source  dataSent
attr title  "Sent Data message, count"
scalar SimpleRREQ.host[29].epf 	destResp:count 	269
attr interpolationmode  none
attr source  destResp
attr title  "Response from destination, count"
scalar SimpleRREQ.host[29].epf 	destEnq:count 	269
attr interpolationmode  none
attr source  destEnq
attr title  "Enquire to Destination, count"
scalar SimpleRREQ.host[29].epf 	respNOkRec:count 	1987
attr interpolationmode  none
attr source  respNOkRec
attr title  "Received Not Ok Response message, count"
scalar SimpleRREQ.host[29].epf 	respNOkSent:count 	5404
attr interpolationmode  none
attr source  respNOkSent
attr title  "Sent Not Ok Response message, count"
scalar SimpleRREQ.host[29].epf 	respOkRec:count 	358
attr interpolationmode  none
attr source  respOkRec
attr title  "Received Ok Response message, count"
scalar SimpleRREQ.host[29].epf 	respOkSent:count 	1130
attr interpolationmode  none
attr source  respOkSent
attr title  "Sent Ok Response message, count"
scalar SimpleRREQ.host[29].epf 	respRec:count 	65189
attr interpolationmode  none
attr source  respRec
attr title  "Received Response message, count"
scalar SimpleRREQ.host[29].epf 	respSent:count 	0
attr interpolationmode  none
attr source  respSent
attr title  "Sent Response message, count"
scalar SimpleRREQ.host[29].epf 	enquireRec:count 	10726
attr interpolationmode  none
attr source  enquireRec
attr title  "Received Enquire message, count"
scalar SimpleRREQ.host[29].epf 	enquireSent:count 	303
attr interpolationmode  none
attr source  enquireSent
attr title  "Sent Enquire message, count"
scalar SimpleRREQ.host[29].epf 	rrep2Rec:count 	0
attr interpolationmode  none
attr source  rrep2Rec
attr title  "Received type 2 RREP, count"
scalar SimpleRREQ.host[29].epf 	rrep1Rec:count 	0
attr interpolationmode  none
attr source  rrep1Rec
attr title  "Received type 1 RREP, count"
scalar SimpleRREQ.host[29].epf 	rrepRec:count 	0
attr interpolationmode  none
attr source  rrepRec
attr title  "Received RREP, count"
scalar SimpleRREQ.host[29].epf 	rreq1Rec:count 	0
attr interpolationmode  none
attr source  rreq1Rec
attr title  "Received type 1 RREQ, count"
scalar SimpleRREQ.host[29].epf 	rreqRec:count 	0
attr interpolationmode  none
attr source  rreqRec
attr title  "Received RREQ, count"
scalar SimpleRREQ.host[29].epf 	rrepSent:count 	0
attr interpolationmode  none
attr source  rrepSent
attr title  "Sent RREP, count"
scalar SimpleRREQ.host[29].epf 	rreqSent:count 	0
attr interpolationmode  none
attr source  rreqSent
attr title  "Sent RREQ, count"
