version 2
run SimpleRREQ-0-20161207-12:08:02-10016
attr configname SimpleRREQ
attr datetime 20161207-12:08:02
attr experiment SimpleRREQ
attr inifile omnetpp.ini
attr iterationvars "$0=\"./movements/RandomWaypoint—0-100-0.5.movements\""
attr iterationvars2 "$0=\"./movements/RandomWaypoint—0-100-0.5.movements\", $repetition=0"
attr measurement "$0=\"./movements/RandomWaypoint—0-100-0.5.movements\""
attr network SimpleRREQ
attr processid 10016
attr repetition 0
attr replication #0
attr resultdir results
attr runnumber 0
attr seedset 0
param **.hasStatus true
param **.host[*].mobility.nodeId -1
param **.host[*].mobility.traceFile "${\"./movements/RandomWaypoint—0-100-0.5.movements\"}"
param **.host[*].mobilityType "\"BonnMotionMobility\""
param **.host[*].numPingApps 1
param **.host[*].pingApp[0].destAddr "\"host[0](ipv4)\""
param **.host[*].pingApp[0].printPing true
param **.host[*].pingApp[0].startTime uniform(1s,5s)
param **.mobility.constraintAreaMaxX 600m
param **.mobility.constraintAreaMaxY 600m
param **.mobility.constraintAreaMaxZ 0m
param **.mobility.constraintAreaMinX 0m
param **.mobility.constraintAreaMinY 0m
param **.mobility.constraintAreaMinZ 0m
param **.trickle.Imax 20s
param **.trickle.Imin 10s
param **.trickle.MaxMessages 5
param **.wlan[*].bitrate 2Mbps
param **.wlan[*].mac.address "\"auto\""
param **.wlan[*].mac.cwMinData 7
param **.wlan[*].mac.cwMinMulticast 31
param **.wlan[*].mac.headerLength 20B
param **.wlan[*].mac.maxQueueSize 14
param **.wlan[*].mac.retryLimit 7
param **.wlan[*].mac.rtsThresholdBytes 3000B
param **.wlan[*].mgmt.frameCapacity 10
param **.wlan[*].radio.receiver.ignoreInterference true
param **.wlan[*].radio.transmitter.communicationRange 250m
param **.wlan[*].radio.transmitter.detectionRange 0m
param **.wlan[*].radio.transmitter.headerBitLength 0b
param **.wlan[*].radio.transmitter.interferenceRange 0m
param **.wlan[*].radioType "\"IdealRadio\""
param **.wlan[*].typename "\"IdealWirelessNic\""
param *.host0.numPingApps 1
param *.host0.pingApp[0].printPing true
param *.host0.pingApp[0].startTime uniform(1s,5s)
param *.numHosts 3

scalar SimpleRREQ 	hackForCreateResultsFolder 	0
scalar SimpleRREQ.radioMedium.propagation 	"Arrival computation count" 	10332236
scalar SimpleRREQ.radioMedium 	"transmission count" 	356284
scalar SimpleRREQ.radioMedium 	"radio frame send count" 	10332236
scalar SimpleRREQ.radioMedium 	"reception computation count" 	10331366
scalar SimpleRREQ.radioMedium 	"interference computation count" 	19500709
scalar SimpleRREQ.radioMedium 	"reception decision computation count" 	2549525
scalar SimpleRREQ.radioMedium 	"listening decision computation count" 	6619818
scalar SimpleRREQ.radioMedium 	"reception cache hit" 	91.357385997265
attr unit  %
scalar SimpleRREQ.radioMedium 	"interference cache hit" 	66.666666666667
attr unit  %
scalar SimpleRREQ.radioMedium 	"noise cache hit" 	0
attr unit  %
scalar SimpleRREQ.radioMedium 	"snir cache hit" 	50
attr unit  %
scalar SimpleRREQ.radioMedium 	"reception decision cache hit" 	50
attr unit  %
scalar SimpleRREQ.radioMedium 	"reception result cache hit" 	0
attr unit  %
scalar SimpleRREQ.host[0].networkLayer.arp 	sentReply:count 	0
attr title  "ARP replies sent, count"
scalar SimpleRREQ.host[0].networkLayer.arp 	sentReq:count 	0
attr title  "ARP request sent, count"
scalar SimpleRREQ.host[0].networkLayer.arp 	failedARPResolution:count 	0
attr title  "ARP failed resolutions, count"
scalar SimpleRREQ.host[0].networkLayer.arp 	completedARPResolution:count 	0
attr title  "ARP completed resolutions, count"
scalar SimpleRREQ.host[0].networkLayer.arp 	initiatedARPResolution:count 	0
attr title  "ARP initiated resolutions, count"
scalar SimpleRREQ.host[0].lo0.lo 	droppedPkBitError:count 	0
attr interpolationmode  none
attr source  dropPkBitError
attr title  "packets dropped/bit error, count"
scalar SimpleRREQ.host[0].lo0.lo 	droppedPkBitError:sum(packetBytes) 	0
attr interpolationmode  none
attr source  dropPkBitError
attr title  "packets dropped/bit error, sum(packetBytes)"
scalar SimpleRREQ.host[0].lo0.lo 	rcvdPkFromHL:count 	2394
attr interpolationmode  none
attr source  packetReceivedFromUpper
attr title  "packets received from higher layer, count"
scalar SimpleRREQ.host[0].lo0.lo 	rcvdPkFromHL:sum(packetBytes) 	201096
attr interpolationmode  none
attr source  packetReceivedFromUpper
attr title  "packets received from higher layer, sum(packetBytes)"
scalar SimpleRREQ.host[0].lo0.lo 	passedUpPk:count 	2394
attr interpolationmode  none
attr source  packetSentToUpper
attr title  "packets passed to higher layer, count"
scalar SimpleRREQ.host[0].lo0.lo 	passedUpPk:sum(packetBytes) 	201096
attr interpolationmode  none
attr source  packetSentToUpper
attr title  "packets passed to higher layer, sum(packetBytes)"
scalar SimpleRREQ.host[0].wlan[0].queue 	queueLength:max 	2
attr interpolationmode  sample-hold
attr title  "queue length, max"
scalar SimpleRREQ.host[0].wlan[0].queue 	queueLength:timeavg 	6.3758260340833e-005
attr interpolationmode  sample-hold
attr title  "queue length, timeavg"
statistic SimpleRREQ.host[0].wlan[0].queue 	queueingTime:histogram
field count 10014
field mean 7.6402948281406e-006
field stddev 3.9408047362923e-005
field sum 0.076509912409
field sqrsum 1.6134689182224e-005
field min 0
field max 0.000383988251
attr interpolationmode  none
attr title  "queueing time, histogram"
bin	-INF	0
bin	-9.59960775e-005	0
bin	-8.31966005e-005	0
bin	-7.03971235e-005	0
bin	-5.75976465e-005	0
bin	-4.47981695e-005	0
bin	-3.19986925e-005	0
bin	-1.91992155e-005	0
bin	-6.3997385e-006	9635
bin	6.3997385e-006	0
bin	1.91992155e-005	0
bin	3.19986925e-005	0
bin	4.47981695e-005	0
bin	5.75976465e-005	0
bin	7.03971235e-005	0
bin	8.31966005e-005	0
bin	9.59960775e-005	0
bin	0.0001087955545	0
bin	0.0001215950315	0
bin	0.0001343945085	0
bin	0.0001471939855	0
bin	0.0001599934625	0
bin	0.0001727929395	0
bin	0.0001855924165	359
bin	0.0001983918935	0
bin	0.0002111913705	0
bin	0.0002239908475	0
bin	0.0002367903245	0
bin	0.0002495898015	0
bin	0.0002623892785	0
bin	0.0002751887555	0
bin	0.0002879882325	20
scalar SimpleRREQ.host[0].wlan[0].queue 	dropPk:count 	0
attr interpolationmode  none
attr source  dropPkByQueue
attr title  "dropped packets, count"
scalar SimpleRREQ.host[0].wlan[0].queue 	dropPk:sum(packetBytes) 	0
attr interpolationmode  none
attr source  dropPkByQueue
attr title  "dropped packets, sum(packetBytes)"
scalar SimpleRREQ.host[0].wlan[0].queue 	rcvdPk:count 	10014
attr interpolationmode  none
attr title  "received packets, count"
scalar SimpleRREQ.host[0].wlan[0].queue 	rcvdPk:sum(packetBytes) 	280392
attr interpolationmode  none
attr title  "received packets, sum(packetBytes)"
scalar SimpleRREQ.host[0].wlan[0].mac 	droppedPkNotForUs:count 	0
attr interpolationmode  none
attr source  dropPkNotForUs
attr title  "packets dropped/not for us, count"
scalar SimpleRREQ.host[0].wlan[0].mac 	droppedPkNotForUs:sum(packetBytes) 	0
attr interpolationmode  none
attr source  dropPkNotForUs
attr title  "packets dropped/not for us, sum(packetBytes)"
scalar SimpleRREQ.host[0].wlan[0].mac 	rcvdPkFromHL:count 	10014
attr interpolationmode  none
attr source  packetReceivedFromUpper
attr title  "packets received from higher layer, count"
scalar SimpleRREQ.host[0].wlan[0].mac 	rcvdPkFromHL:sum(packetBytes) 	280392
attr interpolationmode  none
attr source  packetReceivedFromUpper
attr title  "packets received from higher layer, sum(packetBytes)"
scalar SimpleRREQ.host[0].wlan[0].mac 	passedUpPk:count 	66818
attr interpolationmode  none
attr source  packetSentToUpper
attr title  "packets passed to higher layer, count"
scalar SimpleRREQ.host[0].wlan[0].mac 	passedUpPk:sum(packetBytes) 	1870904
attr interpolationmode  none
attr source  packetSentToUpper
attr title  "packets passed to higher layer, sum(packetBytes)"
scalar SimpleRREQ.host[0].wlan[0].mac 	rcvdPkFromLL:count 	66818
attr interpolationmode  none
attr source  packetReceivedFromLower
attr title  "packets received from lower layer, count"
scalar SimpleRREQ.host[0].wlan[0].mac 	rcvdPkFromLL:sum(packetBytes) 	3207264
attr interpolationmode  none
attr source  packetReceivedFromLower
attr title  "packets received from lower layer, sum(packetBytes)"
scalar SimpleRREQ.host[0].wlan[0].mac 	sentDownPk:count 	10014
attr interpolationmode  none
attr source  packetSentToLower
attr title  "packets sent to lower layer, count"
scalar SimpleRREQ.host[0].wlan[0].mac 	sentDownPk:sum(packetBytes) 	480672
attr interpolationmode  none
attr source  packetSentToLower
attr title  "packets sent to lower layer, sum(packetBytes)"
statistic SimpleRREQ.host[0].wlan[0].radio 	symbolErrorRate:histogram
field count 66818
field mean 0.42757939477386
field stddev 0.49473115831459
field sum 28570
field sqrsum 28570
field min 0
field max 1
attr source  symbolErrorRate
attr title  "Symbol error rate, histogram"
bin	-INF	0
bin	-1	0
bin	0	38248
bin	1	28570
bin	2	0
statistic SimpleRREQ.host[0].wlan[0].radio 	bitErrorRate:histogram
field count 66818
field mean 0.42757939477386
field stddev 0.49473115831459
field sum 28570
field sqrsum 28570
field min 0
field max 1
attr source  bitErrorRate
attr title  "Bit error rate, histogram"
bin	-INF	0
bin	-1	0
bin	0	38248
bin	1	28570
bin	2	0
statistic SimpleRREQ.host[0].wlan[0].radio 	packetErrorRate:histogram
field count 66818
field mean 0.42757939477386
field stddev 0.49473115831459
field sum 28570
field sqrsum 28570
field min 0
field max 1
attr source  packetErrorRate
attr title  "Packet error rate, histogram"
bin	-INF	0
bin	-1	0
bin	0	38248
bin	1	28570
bin	2	0
statistic SimpleRREQ.host[0].wlan[0].radio 	minSNIR:histogram
field count 66818
field mean nan
field stddev nan
field sum nan
field sqrsum nan
field min nan
field max nan
attr source  minSNIR
attr title  "Min SNIR, histogram"
bin	-INF	66818
bin	nan	0
bin	nan	0
bin	nan	0
bin	nan	0
bin	nan	0
bin	nan	0
bin	nan	0
bin	nan	0
bin	nan	0
bin	nan	0
bin	nan	0
bin	nan	0
bin	nan	0
bin	nan	0
bin	nan	0
bin	nan	0
bin	nan	0
bin	nan	0
bin	nan	0
bin	nan	0
bin	nan	0
bin	nan	0
bin	nan	0
bin	nan	0
bin	nan	0
bin	nan	0
bin	nan	0
bin	nan	0
bin	nan	0
bin	nan	0
bin	nan	0
scalar SimpleRREQ.host[0].wlan[0].radio 	transmissionState:count 	20028
attr interpolationmode  sample-hold
attr source  transmissionStateChanged
attr title  "Radio transmission state, count"
scalar SimpleRREQ.host[0].wlan[0].radio 	receptionState:count 	133639
attr interpolationmode  sample-hold
attr source  receptionStateChanged
attr title  "Radio reception state, count"
scalar SimpleRREQ.host[0].wlan[0].radio 	radioMode:count 	2
attr interpolationmode  sample-hold
attr source  radioModeChanged
attr title  "Radio mode, count"
scalar SimpleRREQ.host[0].pingApp[0] 	"Pings sent" 	1197
scalar SimpleRREQ.host[0].pingApp[0] 	"ping loss rate (%)" 	0
scalar SimpleRREQ.host[0].pingApp[0] 	"ping out-of-order rate (%)" 	0
scalar SimpleRREQ.host[0].pingApp[0] 	numOutOfOrderArrivals:last 	nan
attr interpolationmode  none
attr title  "ping out-of-order arrivals, last"
scalar SimpleRREQ.host[0].pingApp[0] 	pingRxSeq:count 	1197
attr interpolationmode  none
attr title  "ping rx seq, count"
scalar SimpleRREQ.host[0].pingApp[0] 	pingTxSeq:count 	1197
attr interpolationmode  none
attr title  "ping tx seq, count"
scalar SimpleRREQ.host[0].pingApp[0] 	numLost:last 	nan
attr interpolationmode  none
attr title  "pings lost, last"
statistic SimpleRREQ.host[0].pingApp[0] 	rtt:histogram
field count 1197
field mean 0.28065162907268
field stddev 0.044051616589905
field sum 335.94
field sqrsum 96.603000000001
field min 0.18
field max 0.38
attr interpolationmode  none
attr title  "ping round-trip time, histogram"
attr unit  s
bin	-INF	0
bin	0.1	0
bin	0.112	0
bin	0.124	0
bin	0.136	0
bin	0.148	0
bin	0.16	0
bin	0.172	8
bin	0.184	14
bin	0.196	33
bin	0.208	86
bin	0.22	47
bin	0.232	78
bin	0.244	85
bin	0.256	85
bin	0.268	220
bin	0.28	92
bin	0.292	95
bin	0.304	80
bin	0.316	70
bin	0.328	103
bin	0.34	39
bin	0.352	32
bin	0.364	18
bin	0.376	12
bin	0.388	0
bin	0.4	0
bin	0.412	0
bin	0.424	0
bin	0.436	0
bin	0.448	0
bin	0.46	0
scalar SimpleRREQ.host[0].epf 	dataFwd:count 	440
attr interpolationmode  none
attr source  dataFwd
attr title  "Forward Data message, count"
scalar SimpleRREQ.host[0].epf 	dataDest:count 	318
attr interpolationmode  none
attr source  dataDest
attr title  "Received Data message on Destination, count"
scalar SimpleRREQ.host[0].epf 	dataRec:count 	7474
attr interpolationmode  none
attr source  dataRec
attr title  "Received Data message, count"
scalar SimpleRREQ.host[0].epf 	dataSent:count 	763
attr interpolationmode  none
attr source  dataSent
attr title  "Sent Data message, count"
scalar SimpleRREQ.host[0].epf 	destResp:count 	288
attr interpolationmode  none
attr source  destResp
attr title  "Response from destination, count"
scalar SimpleRREQ.host[0].epf 	destEnq:count 	288
attr interpolationmode  none
attr source  destEnq
attr title  "Enquire to Destination, count"
scalar SimpleRREQ.host[0].epf 	respNOkRec:count 	2795
attr interpolationmode  none
attr source  respNOkRec
attr title  "Received Not Ok Response message, count"
scalar SimpleRREQ.host[0].epf 	respNOkSent:count 	1745
attr interpolationmode  none
attr source  respNOkSent
attr title  "Sent Not Ok Response message, count"
scalar SimpleRREQ.host[0].epf 	respOkRec:count 	763
attr interpolationmode  none
attr source  respOkRec
attr title  "Received Ok Response message, count"
scalar SimpleRREQ.host[0].epf 	respOkSent:count 	1873
attr interpolationmode  none
attr source  respOkSent
attr title  "Sent Ok Response message, count"
scalar SimpleRREQ.host[0].epf 	respRec:count 	50818
attr interpolationmode  none
attr source  respRec
attr title  "Received Response message, count"
scalar SimpleRREQ.host[0].epf 	respSent:count 	0
attr interpolationmode  none
attr source  respSent
attr title  "Sent Response message, count"
scalar SimpleRREQ.host[0].epf 	enquireRec:count 	7727
attr interpolationmode  none
attr source  enquireRec
attr title  "Received Enquire message, count"
scalar SimpleRREQ.host[0].epf 	enquireSent:count 	608
attr interpolationmode  none
attr source  enquireSent
attr title  "Sent Enquire message, count"
scalar SimpleRREQ.host[0].epf 	rrep2Rec:count 	0
attr interpolationmode  none
attr source  rrep2Rec
attr title  "Received type 2 RREP, count"
scalar SimpleRREQ.host[0].epf 	rrep1Rec:count 	0
attr interpolationmode  none
attr source  rrep1Rec
attr title  "Received type 1 RREP, count"
scalar SimpleRREQ.host[0].epf 	rrepRec:count 	0
attr interpolationmode  none
attr source  rrepRec
attr title  "Received RREP, count"
scalar SimpleRREQ.host[0].epf 	rreq1Rec:count 	0
attr interpolationmode  none
attr source  rreq1Rec
attr title  "Received type 1 RREQ, count"
scalar SimpleRREQ.host[0].epf 	rreqRec:count 	0
attr interpolationmode  none
attr source  rreqRec
attr title  "Received RREQ, count"
scalar SimpleRREQ.host[0].epf 	rrepSent:count 	0
attr interpolationmode  none
attr source  rrepSent
attr title  "Sent RREP, count"
scalar SimpleRREQ.host[0].epf 	rreqSent:count 	0
attr interpolationmode  none
attr source  rreqSent
attr title  "Sent RREQ, count"
scalar SimpleRREQ.host[1].networkLayer.arp 	sentReply:count 	0
attr title  "ARP replies sent, count"
scalar SimpleRREQ.host[1].networkLayer.arp 	sentReq:count 	0
attr title  "ARP request sent, count"
scalar SimpleRREQ.host[1].networkLayer.arp 	failedARPResolution:count 	0
attr title  "ARP failed resolutions, count"
scalar SimpleRREQ.host[1].networkLayer.arp 	completedARPResolution:count 	0
attr title  "ARP completed resolutions, count"
scalar SimpleRREQ.host[1].networkLayer.arp 	initiatedARPResolution:count 	0
attr title  "ARP initiated resolutions, count"
scalar SimpleRREQ.host[1].lo0.lo 	droppedPkBitError:count 	0
attr interpolationmode  none
attr source  dropPkBitError
attr title  "packets dropped/bit error, count"
scalar SimpleRREQ.host[1].lo0.lo 	droppedPkBitError:sum(packetBytes) 	0
attr interpolationmode  none
attr source  dropPkBitError
attr title  "packets dropped/bit error, sum(packetBytes)"
scalar SimpleRREQ.host[1].lo0.lo 	rcvdPkFromHL:count 	0
attr interpolationmode  none
attr source  packetReceivedFromUpper
attr title  "packets received from higher layer, count"
scalar SimpleRREQ.host[1].lo0.lo 	rcvdPkFromHL:sum(packetBytes) 	0
attr interpolationmode  none
attr source  packetReceivedFromUpper
attr title  "packets received from higher layer, sum(packetBytes)"
scalar SimpleRREQ.host[1].lo0.lo 	passedUpPk:count 	0
attr interpolationmode  none
attr source  packetSentToUpper
attr title  "packets passed to higher layer, count"
scalar SimpleRREQ.host[1].lo0.lo 	passedUpPk:sum(packetBytes) 	0
attr interpolationmode  none
attr source  packetSentToUpper
attr title  "packets passed to higher layer, sum(packetBytes)"
scalar SimpleRREQ.host[1].wlan[0].queue 	queueLength:max 	3
attr interpolationmode  sample-hold
attr title  "queue length, max"
scalar SimpleRREQ.host[1].wlan[0].queue 	queueLength:timeavg 	0.0001048091222925
attr interpolationmode  sample-hold
attr title  "queue length, timeavg"
statistic SimpleRREQ.host[1].wlan[0].queue 	queueingTime:histogram
field count 12429
field mean 1.011915252643e-005
field stddev 4.5925649439855e-005
field sum 0.125770946751
field sqrsum 2.7485401449567e-005
field min 0
field max 0.000575661572
attr interpolationmode  none
attr title  "queueing time, histogram"
bin	-INF	0
bin	-0.0001917491905	0
bin	-0.00016618263176667	0
bin	-0.00014061607303333	0
bin	-0.0001150495143	0
bin	-8.9482955566667e-005	0
bin	-6.3916396833333e-005	0
bin	-3.83498381e-005	0
bin	-1.2783279366667e-005	11818
bin	1.2783279366667e-005	0
bin	3.83498381e-005	0
bin	6.3916396833333e-005	0
bin	8.9482955566667e-005	0
bin	0.0001150495143	0
bin	0.00014061607303333	0
bin	0.00016618263176667	282
bin	0.0001917491905	285
bin	0.00021731574923333	0
bin	0.00024288230796667	0
bin	0.0002684488667	0
bin	0.00029401542543333	0
bin	0.00031958198416667	0
bin	0.0003451485429	0
bin	0.00037071510163333	43
bin	0.00039628166036667	0
bin	0.0004218482191	0
bin	0.00044741477783333	0
bin	0.00047298133656667	0
bin	0.0004985478953	0
bin	0.00052411445403333	0
bin	0.00054968101276667	0
bin	0.0005752475715	1
scalar SimpleRREQ.host[1].wlan[0].queue 	dropPk:count 	0
attr interpolationmode  none
attr source  dropPkByQueue
attr title  "dropped packets, count"
scalar SimpleRREQ.host[1].wlan[0].queue 	dropPk:sum(packetBytes) 	0
attr interpolationmode  none
attr source  dropPkByQueue
attr title  "dropped packets, sum(packetBytes)"
scalar SimpleRREQ.host[1].wlan[0].queue 	rcvdPk:count 	12429
attr interpolationmode  none
attr title  "received packets, count"
scalar SimpleRREQ.host[1].wlan[0].queue 	rcvdPk:sum(packetBytes) 	348012
attr interpolationmode  none
attr title  "received packets, sum(packetBytes)"
scalar SimpleRREQ.host[1].wlan[0].mac 	droppedPkNotForUs:count 	0
attr interpolationmode  none
attr source  dropPkNotForUs
attr title  "packets dropped/not for us, count"
scalar SimpleRREQ.host[1].wlan[0].mac 	droppedPkNotForUs:sum(packetBytes) 	0
attr interpolationmode  none
attr source  dropPkNotForUs
attr title  "packets dropped/not for us, sum(packetBytes)"
scalar SimpleRREQ.host[1].wlan[0].mac 	rcvdPkFromHL:count 	12429
attr interpolationmode  none
attr source  packetReceivedFromUpper
attr title  "packets received from higher layer, count"
scalar SimpleRREQ.host[1].wlan[0].mac 	rcvdPkFromHL:sum(packetBytes) 	348012
attr interpolationmode  none
attr source  packetReceivedFromUpper
attr title  "packets received from higher layer, sum(packetBytes)"
scalar SimpleRREQ.host[1].wlan[0].mac 	passedUpPk:count 	88116
attr interpolationmode  none
attr source  packetSentToUpper
attr title  "packets passed to higher layer, count"
scalar SimpleRREQ.host[1].wlan[0].mac 	passedUpPk:sum(packetBytes) 	2467248
attr interpolationmode  none
attr source  packetSentToUpper
attr title  "packets passed to higher layer, sum(packetBytes)"
scalar SimpleRREQ.host[1].wlan[0].mac 	rcvdPkFromLL:count 	88116
attr interpolationmode  none
attr source  packetReceivedFromLower
attr title  "packets received from lower layer, count"
scalar SimpleRREQ.host[1].wlan[0].mac 	rcvdPkFromLL:sum(packetBytes) 	4229568
attr interpolationmode  none
attr source  packetReceivedFromLower
attr title  "packets received from lower layer, sum(packetBytes)"
scalar SimpleRREQ.host[1].wlan[0].mac 	sentDownPk:count 	12429
attr interpolationmode  none
attr source  packetSentToLower
attr title  "packets sent to lower layer, count"
scalar SimpleRREQ.host[1].wlan[0].mac 	sentDownPk:sum(packetBytes) 	596592
attr interpolationmode  none
attr source  packetSentToLower
attr title  "packets sent to lower layer, sum(packetBytes)"
statistic SimpleRREQ.host[1].wlan[0].radio 	symbolErrorRate:histogram
field count 88116
field mean 0.50031776294884
field stddev 0.50000273621946
field sum 44086
field sqrsum 44086
field min 0
field max 1
attr source  symbolErrorRate
attr title  "Symbol error rate, histogram"
bin	-INF	0
bin	-1	0
bin	0	44030
bin	1	44086
bin	2	0
statistic SimpleRREQ.host[1].wlan[0].radio 	bitErrorRate:histogram
field count 88116
field mean 0.50031776294884
field stddev 0.50000273621946
field sum 44086
field sqrsum 44086
field min 0
field max 1
attr source  bitErrorRate
attr title  "Bit error rate, histogram"
bin	-INF	0
bin	-1	0
bin	0	44030
bin	1	44086
bin	2	0
statistic SimpleRREQ.host[1].wlan[0].radio 	packetErrorRate:histogram
field count 88116
field mean 0.50031776294884
field stddev 0.50000273621946
field sum 44086
field sqrsum 44086
field min 0
field max 1
attr source  packetErrorRate
attr title  "Packet error rate, histogram"
bin	-INF	0
bin	-1	0
bin	0	44030
bin	1	44086
bin	2	0
statistic SimpleRREQ.host[1].wlan[0].radio 	minSNIR:histogram
field count 88116
field mean nan
field stddev nan
field sum nan
field sqrsum nan
field min nan
field max nan
attr source  minSNIR
attr title  "Min SNIR, histogram"
bin	-INF	88116
bin	nan	0
bin	nan	0
bin	nan	0
bin	nan	0
bin	nan	0
bin	nan	0
bin	nan	0
bin	nan	0
bin	nan	0
bin	nan	0
bin	nan	0
bin	nan	0
bin	nan	0
bin	nan	0
bin	nan	0
bin	nan	0
bin	nan	0
bin	nan	0
bin	nan	0
bin	nan	0
bin	nan	0
bin	nan	0
bin	nan	0
bin	nan	0
bin	nan	0
bin	nan	0
bin	nan	0
bin	nan	0
bin	nan	0
bin	nan	0
bin	nan	0
scalar SimpleRREQ.host[1].wlan[0].radio 	transmissionState:count 	24858
attr interpolationmode  sample-hold
attr source  transmissionStateChanged
attr title  "Radio transmission state, count"
scalar SimpleRREQ.host[1].wlan[0].radio 	receptionState:count 	176233
attr interpolationmode  sample-hold
attr source  receptionStateChanged
attr title  "Radio reception state, count"
scalar SimpleRREQ.host[1].wlan[0].radio 	radioMode:count 	2
attr interpolationmode  sample-hold
attr source  radioModeChanged
attr title  "Radio mode, count"
scalar SimpleRREQ.host[1].pingApp[0] 	"Pings sent" 	1197
scalar SimpleRREQ.host[1].pingApp[0] 	"ping loss rate (%)" 	100
scalar SimpleRREQ.host[1].pingApp[0] 	"ping out-of-order rate (%)" 	0
scalar SimpleRREQ.host[1].pingApp[0] 	numOutOfOrderArrivals:last 	nan
attr interpolationmode  none
attr title  "ping out-of-order arrivals, last"
scalar SimpleRREQ.host[1].pingApp[0] 	pingRxSeq:count 	0
attr interpolationmode  none
attr title  "ping rx seq, count"
scalar SimpleRREQ.host[1].pingApp[0] 	pingTxSeq:count 	1197
attr interpolationmode  none
attr title  "ping tx seq, count"
scalar SimpleRREQ.host[1].pingApp[0] 	numLost:last 	nan
attr interpolationmode  none
attr title  "pings lost, last"
statistic SimpleRREQ.host[1].pingApp[0] 	rtt:histogram
field count 0
field mean nan
field stddev nan
field sum 0
field sqrsum 0
field min nan
field max nan
attr interpolationmode  none
attr title  "ping round-trip time, histogram"
attr unit  s
bin	-INF	0
bin	-0.5	0
bin	-0.46666666666667	0
bin	-0.43333333333333	0
bin	-0.4	0
bin	-0.36666666666667	0
bin	-0.33333333333333	0
bin	-0.3	0
bin	-0.26666666666667	0
bin	-0.23333333333333	0
bin	-0.2	0
bin	-0.16666666666667	0
bin	-0.13333333333333	0
bin	-0.1	0
bin	-0.066666666666667	0
bin	-0.033333333333333	0
bin	0	0
bin	0.033333333333333	0
bin	0.066666666666667	0
bin	0.1	0
bin	0.13333333333333	0
bin	0.16666666666667	0
bin	0.2	0
bin	0.23333333333333	0
bin	0.26666666666667	0
bin	0.3	0
bin	0.33333333333333	0
bin	0.36666666666667	0
bin	0.4	0
bin	0.43333333333333	0
bin	0.46666666666667	0
bin	0.5	0
scalar SimpleRREQ.host[1].epf 	dataFwd:count 	387
attr interpolationmode  none
attr source  dataFwd
attr title  "Forward Data message, count"
scalar SimpleRREQ.host[1].epf 	dataDest:count 	378
attr interpolationmode  none
attr source  dataDest
attr title  "Received Data message on Destination, count"
scalar SimpleRREQ.host[1].epf 	dataRec:count 	11659
attr interpolationmode  none
attr source  dataRec
attr title  "Received Data message, count"
scalar SimpleRREQ.host[1].epf 	dataSent:count 	683
attr interpolationmode  none
attr source  dataSent
attr title  "Sent Data message, count"
scalar SimpleRREQ.host[1].epf 	destResp:count 	325
attr interpolationmode  none
attr source  destResp
attr title  "Response from destination, count"
scalar SimpleRREQ.host[1].epf 	destEnq:count 	325
attr interpolationmode  none
attr source  destEnq
attr title  "Enquire to Destination, count"
scalar SimpleRREQ.host[1].epf 	respNOkRec:count 	2875
attr interpolationmode  none
attr source  respNOkRec
attr title  "Received Not Ok Response message, count"
scalar SimpleRREQ.host[1].epf 	respNOkSent:count 	3436
attr interpolationmode  none
attr source  respNOkSent
attr title  "Sent Not Ok Response message, count"
scalar SimpleRREQ.host[1].epf 	respOkRec:count 	683
attr interpolationmode  none
attr source  respOkRec
attr title  "Received Ok Response message, count"
scalar SimpleRREQ.host[1].epf 	respOkSent:count 	1977
attr interpolationmode  none
attr source  respOkSent
attr title  "Sent Ok Response message, count"
scalar SimpleRREQ.host[1].epf 	respRec:count 	65289
attr interpolationmode  none
attr source  respRec
attr title  "Received Response message, count"
scalar SimpleRREQ.host[1].epf 	respSent:count 	0
attr interpolationmode  none
attr source  respSent
attr title  "Sent Response message, count"
scalar SimpleRREQ.host[1].epf 	enquireRec:count 	10369
attr interpolationmode  none
attr source  enquireRec
attr title  "Received Enquire message, count"
scalar SimpleRREQ.host[1].epf 	enquireSent:count 	465
attr interpolationmode  none
attr source  enquireSent
attr title  "Sent Enquire message, count"
scalar SimpleRREQ.host[1].epf 	rrep2Rec:count 	0
attr interpolationmode  none
attr source  rrep2Rec
attr title  "Received type 2 RREP, count"
scalar SimpleRREQ.host[1].epf 	rrep1Rec:count 	0
attr interpolationmode  none
attr source  rrep1Rec
attr title  "Received type 1 RREP, count"
scalar SimpleRREQ.host[1].epf 	rrepRec:count 	0
attr interpolationmode  none
attr source  rrepRec
attr title  "Received RREP, count"
scalar SimpleRREQ.host[1].epf 	rreq1Rec:count 	0
attr interpolationmode  none
attr source  rreq1Rec
attr title  "Received type 1 RREQ, count"
scalar SimpleRREQ.host[1].epf 	rreqRec:count 	0
attr interpolationmode  none
attr source  rreqRec
attr title  "Received RREQ, count"
scalar SimpleRREQ.host[1].epf 	rrepSent:count 	0
attr interpolationmode  none
attr source  rrepSent
attr title  "Sent RREP, count"
scalar SimpleRREQ.host[1].epf 	rreqSent:count 	0
attr interpolationmode  none
attr source  rreqSent
attr title  "Sent RREQ, count"
scalar SimpleRREQ.host[2].networkLayer.arp 	sentReply:count 	0
attr title  "ARP replies sent, count"
scalar SimpleRREQ.host[2].networkLayer.arp 	sentReq:count 	0
attr title  "ARP request sent, count"
scalar SimpleRREQ.host[2].networkLayer.arp 	failedARPResolution:count 	0
attr title  "ARP failed resolutions, count"
scalar SimpleRREQ.host[2].networkLayer.arp 	completedARPResolution:count 	0
attr title  "ARP completed resolutions, count"
scalar SimpleRREQ.host[2].networkLayer.arp 	initiatedARPResolution:count 	0
attr title  "ARP initiated resolutions, count"
scalar SimpleRREQ.host[2].lo0.lo 	droppedPkBitError:count 	0
attr interpolationmode  none
attr source  dropPkBitError
attr title  "packets dropped/bit error, count"
scalar SimpleRREQ.host[2].lo0.lo 	droppedPkBitError:sum(packetBytes) 	0
attr interpolationmode  none
attr source  dropPkBitError
attr title  "packets dropped/bit error, sum(packetBytes)"
scalar SimpleRREQ.host[2].lo0.lo 	rcvdPkFromHL:count 	0
attr interpolationmode  none
attr source  packetReceivedFromUpper
attr title  "packets received from higher layer, count"
scalar SimpleRREQ.host[2].lo0.lo 	rcvdPkFromHL:sum(packetBytes) 	0
attr interpolationmode  none
attr source  packetReceivedFromUpper
attr title  "packets received from higher layer, sum(packetBytes)"
scalar SimpleRREQ.host[2].lo0.lo 	passedUpPk:count 	0
attr interpolationmode  none
attr source  packetSentToUpper
attr title  "packets passed to higher layer, count"
scalar SimpleRREQ.host[2].lo0.lo 	passedUpPk:sum(packetBytes) 	0
attr interpolationmode  none
attr source  packetSentToUpper
attr title  "packets passed to higher layer, sum(packetBytes)"
scalar SimpleRREQ.host[2].wlan[0].queue 	queueLength:max 	3
attr interpolationmode  sample-hold
attr title  "queue length, max"
scalar SimpleRREQ.host[2].wlan[0].queue 	queueLength:timeavg 	0.00011906768624833
attr interpolationmode  sample-hold
attr title  "queue length, timeavg"
statistic SimpleRREQ.host[2].wlan[0].queue 	queueingTime:histogram
field count 12969
field mean 1.1017134975557e-005
field stddev 4.8282132972505e-005
field sum 0.142881223498
field sqrsum 3.180468120196e-005
field min 0
field max 0.000575788195
attr interpolationmode  none
attr title  "queueing time, histogram"
bin	-INF	0
bin	-9.59799055e-005	0
bin	-8.3182584766667e-005	0
bin	-7.0385264033333e-005	0
bin	-5.75879433e-005	0
bin	-4.4790622566667e-005	0
bin	-3.1993301833333e-005	0
bin	-1.91959811e-005	0
bin	-6.3986603666667e-006	12282
bin	6.3986603666667e-006	0
bin	1.91959811e-005	0
bin	3.1993301833333e-005	0
bin	4.4790622566667e-005	0
bin	5.75879433e-005	0
bin	7.0385264033333e-005	0
bin	8.3182584766667e-005	0
bin	9.59799055e-005	0
bin	0.00010877722623333	0
bin	0.00012157454696667	0
bin	0.0001343718677	0
bin	0.00014716918843333	0
bin	0.00015996650916667	0
bin	0.0001727638299	0
bin	0.00018556115063333	631
bin	0.00019835847136667	0
bin	0.0002111557921	0
bin	0.00022395311283333	0
bin	0.00023675043356667	0
bin	0.0002495477543	0
bin	0.00026234507503333	0
bin	0.00027514239576667	0
bin	0.0002879397165	56
scalar SimpleRREQ.host[2].wlan[0].queue 	dropPk:count 	0
attr interpolationmode  none
attr source  dropPkByQueue
attr title  "dropped packets, count"
scalar SimpleRREQ.host[2].wlan[0].queue 	dropPk:sum(packetBytes) 	0
attr interpolationmode  none
attr source  dropPkByQueue
attr title  "dropped packets, sum(packetBytes)"
scalar SimpleRREQ.host[2].wlan[0].queue 	rcvdPk:count 	12969
attr interpolationmode  none
attr title  "received packets, count"
scalar SimpleRREQ.host[2].wlan[0].queue 	rcvdPk:sum(packetBytes) 	363132
attr interpolationmode  none
attr title  "received packets, sum(packetBytes)"
scalar SimpleRREQ.host[2].wlan[0].mac 	droppedPkNotForUs:count 	0
attr interpolationmode  none
attr source  dropPkNotForUs
attr title  "packets dropped/not for us, count"
scalar SimpleRREQ.host[2].wlan[0].mac 	droppedPkNotForUs:sum(packetBytes) 	0
attr interpolationmode  none
attr source  dropPkNotForUs
attr title  "packets dropped/not for us, sum(packetBytes)"
scalar SimpleRREQ.host[2].wlan[0].mac 	rcvdPkFromHL:count 	12969
attr interpolationmode  none
attr source  packetReceivedFromUpper
attr title  "packets received from higher layer, count"
scalar SimpleRREQ.host[2].wlan[0].mac 	rcvdPkFromHL:sum(packetBytes) 	363132
attr interpolationmode  none
attr source  packetReceivedFromUpper
attr title  "packets received from higher layer, sum(packetBytes)"
scalar SimpleRREQ.host[2].wlan[0].mac 	passedUpPk:count 	90035
attr interpolationmode  none
attr source  packetSentToUpper
attr title  "packets passed to higher layer, count"
scalar SimpleRREQ.host[2].wlan[0].mac 	passedUpPk:sum(packetBytes) 	2520980
attr interpolationmode  none
attr source  packetSentToUpper
attr title  "packets passed to higher layer, sum(packetBytes)"
scalar SimpleRREQ.host[2].wlan[0].mac 	rcvdPkFromLL:count 	90035
attr interpolationmode  none
attr source  packetReceivedFromLower
attr title  "packets received from lower layer, count"
scalar SimpleRREQ.host[2].wlan[0].mac 	rcvdPkFromLL:sum(packetBytes) 	4321680
attr interpolationmode  none
attr source  packetReceivedFromLower
attr title  "packets received from lower layer, sum(packetBytes)"
scalar SimpleRREQ.host[2].wlan[0].mac 	sentDownPk:count 	12969
attr interpolationmode  none
attr source  packetSentToLower
attr title  "packets sent to lower layer, count"
scalar SimpleRREQ.host[2].wlan[0].mac 	sentDownPk:sum(packetBytes) 	622512
attr interpolationmode  none
attr source  packetSentToLower
attr title  "packets sent to lower layer, sum(packetBytes)"
statistic SimpleRREQ.host[2].wlan[0].radio 	symbolErrorRate:histogram
field count 90035
field mean 0.4971955350697
field stddev 0.499994911592
field sum 44765
field sqrsum 44765
field min 0
field max 1
attr source  symbolErrorRate
attr title  "Symbol error rate, histogram"
bin	-INF	0
bin	-1	0
bin	0	45270
bin	1	44765
bin	2	0
statistic SimpleRREQ.host[2].wlan[0].radio 	bitErrorRate:histogram
field count 90035
field mean 0.4971955350697
field stddev 0.499994911592
field sum 44765
field sqrsum 44765
field min 0
field max 1
attr source  bitErrorRate
attr title  "Bit error rate, histogram"
bin	-INF	0
bin	-1	0
bin	0	45270
bin	1	44765
bin	2	0
statistic SimpleRREQ.host[2].wlan[0].radio 	packetErrorRate:histogram
field count 90035
field mean 0.4971955350697
field stddev 0.499994911592
field sum 44765
field sqrsum 44765
field min 0
field max 1
attr source  packetErrorRate
attr title  "Packet error rate, histogram"
bin	-INF	0
bin	-1	0
bin	0	45270
bin	1	44765
bin	2	0
statistic SimpleRREQ.host[2].wlan[0].radio 	minSNIR:histogram
field count 90035
field mean nan
field stddev nan
field sum nan
field sqrsum nan
field min nan
field max nan
attr source  minSNIR
attr title  "Min SNIR, histogram"
bin	-INF	90035
bin	nan	0
bin	nan	0
bin	nan	0
bin	nan	0
bin	nan	0
bin	nan	0
bin	nan	0
bin	nan	0
bin	nan	0
bin	nan	0
bin	nan	0
bin	nan	0
bin	nan	0
bin	nan	0
bin	nan	0
bin	nan	0
bin	nan	0
bin	nan	0
bin	nan	0
bin	nan	0
bin	nan	0
bin	nan	0
bin	nan	0
bin	nan	0
bin	nan	0
bin	nan	0
bin	nan	0
bin	nan	0
bin	nan	0
bin	nan	0
bin	nan	0
scalar SimpleRREQ.host[2].wlan[0].radio 	transmissionState:count 	25938
attr interpolationmode  sample-hold
attr source  transmissionStateChanged
attr title  "Radio transmission state, count"
scalar SimpleRREQ.host[2].wlan[0].radio 	receptionState:count 	180071
attr interpolationmode  sample-hold
attr source  receptionStateChanged
attr title  "Radio reception state, count"
scalar SimpleRREQ.host[2].wlan[0].radio 	radioMode:count 	2
attr interpolationmode  sample-hold
attr source  radioModeChanged
attr title  "Radio mode, count"
scalar SimpleRREQ.host[2].pingApp[0] 	"Pings sent" 	1197
scalar SimpleRREQ.host[2].pingApp[0] 	"ping loss rate (%)" 	100
scalar SimpleRREQ.host[2].pingApp[0] 	"ping out-of-order rate (%)" 	0
scalar SimpleRREQ.host[2].pingApp[0] 	numOutOfOrderArrivals:last 	nan
attr interpolationmode  none
attr title  "ping out-of-order arrivals, last"
scalar SimpleRREQ.host[2].pingApp[0] 	pingRxSeq:count 	0
attr interpolationmode  none
attr title  "ping rx seq, count"
scalar SimpleRREQ.host[2].pingApp[0] 	pingTxSeq:count 	1197
attr interpolationmode  none
attr title  "ping tx seq, count"
scalar SimpleRREQ.host[2].pingApp[0] 	numLost:last 	nan
attr interpolationmode  none
attr title  "pings lost, last"
statistic SimpleRREQ.host[2].pingApp[0] 	rtt:histogram
field count 0
field mean nan
field stddev nan
field sum 0
field sqrsum 0
field min nan
field max nan
attr interpolationmode  none
attr title  "ping round-trip time, histogram"
attr unit  s
bin	-INF	0
bin	-0.5	0
bin	-0.46666666666667	0
bin	-0.43333333333333	0
bin	-0.4	0
bin	-0.36666666666667	0
bin	-0.33333333333333	0
bin	-0.3	0
bin	-0.26666666666667	0
bin	-0.23333333333333	0
bin	-0.2	0
bin	-0.16666666666667	0
bin	-0.13333333333333	0
bin	-0.1	0
bin	-0.066666666666667	0
bin	-0.033333333333333	0
bin	0	0
bin	0.033333333333333	0
bin	0.066666666666667	0
bin	0.1	0
bin	0.13333333333333	0
bin	0.16666666666667	0
bin	0.2	0
bin	0.23333333333333	0
bin	0.26666666666667	0
bin	0.3	0
bin	0.33333333333333	0
bin	0.36666666666667	0
bin	0.4	0
bin	0.43333333333333	0
bin	0.46666666666667	0
bin	0.5	0
scalar SimpleRREQ.host[2].epf 	dataFwd:count 	350
attr interpolationmode  none
attr source  dataFwd
attr title  "Forward Data message, count"
scalar SimpleRREQ.host[2].epf 	dataDest:count 	418
attr interpolationmode  none
attr source  dataDest
attr title  "Received Data message on Destination, count"
scalar SimpleRREQ.host[2].epf 	dataRec:count 	11303
attr interpolationmode  none
attr source  dataRec
attr title  "Received Data message, count"
scalar SimpleRREQ.host[2].epf 	dataSent:count 	697
attr interpolationmode  none
attr source  dataSent
attr title  "Sent Data message, count"
scalar SimpleRREQ.host[2].epf 	destResp:count 	382
attr interpolationmode  none
attr source  destResp
attr title  "Response from destination, count"
scalar SimpleRREQ.host[2].epf 	destEnq:count 	382
attr interpolationmode  none
attr source  destEnq
attr title  "Enquire to Destination, count"
scalar SimpleRREQ.host[2].epf 	respNOkRec:count 	3403
attr interpolationmode  none
attr source  respNOkRec
attr title  "Received Not Ok Response message, count"
scalar SimpleRREQ.host[2].epf 	respNOkSent:count 	4290
attr interpolationmode  none
attr source  respNOkSent
attr title  "Sent Not Ok Response message, count"
scalar SimpleRREQ.host[2].epf 	respOkRec:count 	697
attr interpolationmode  none
attr source  respOkRec
attr title  "Received Ok Response message, count"
scalar SimpleRREQ.host[2].epf 	respOkSent:count 	2008
attr interpolationmode  none
attr source  respOkSent
attr title  "Sent Ok Response message, count"
scalar SimpleRREQ.host[2].epf 	respRec:count 	67005
attr interpolationmode  none
attr source  respRec
attr title  "Received Response message, count"
scalar SimpleRREQ.host[2].epf 	respSent:count 	0
attr interpolationmode  none
attr source  respSent
attr title  "Sent Response message, count"
scalar SimpleRREQ.host[2].epf 	enquireRec:count 	10928
attr interpolationmode  none
attr source  enquireRec
attr title  "Received Enquire message, count"
scalar SimpleRREQ.host[2].epf 	enquireSent:count 	513
attr interpolationmode  none
attr source  enquireSent
attr title  "Sent Enquire message, count"
scalar SimpleRREQ.host[2].epf 	rrep2Rec:count 	0
attr interpolationmode  none
attr source  rrep2Rec
attr title  "Received type 2 RREP, count"
scalar SimpleRREQ.host[2].epf 	rrep1Rec:count 	0
attr interpolationmode  none
attr source  rrep1Rec
attr title  "Received type 1 RREP, count"
scalar SimpleRREQ.host[2].epf 	rrepRec:count 	0
attr interpolationmode  none
attr source  rrepRec
attr title  "Received RREP, count"
scalar SimpleRREQ.host[2].epf 	rreq1Rec:count 	0
attr interpolationmode  none
attr source  rreq1Rec
attr title  "Received type 1 RREQ, count"
scalar SimpleRREQ.host[2].epf 	rreqRec:count 	0
attr interpolationmode  none
attr source  rreqRec
attr title  "Received RREQ, count"
scalar SimpleRREQ.host[2].epf 	rrepSent:count 	0
attr interpolationmode  none
attr source  rrepSent
attr title  "Sent RREP, count"
scalar SimpleRREQ.host[2].epf 	rreqSent:count 	0
attr interpolationmode  none
attr source  rreqSent
attr title  "Sent RREQ, count"
scalar SimpleRREQ.host[3].networkLayer.arp 	sentReply:count 	0
attr title  "ARP replies sent, count"
scalar SimpleRREQ.host[3].networkLayer.arp 	sentReq:count 	0
attr title  "ARP request sent, count"
scalar SimpleRREQ.host[3].networkLayer.arp 	failedARPResolution:count 	0
attr title  "ARP failed resolutions, count"
scalar SimpleRREQ.host[3].networkLayer.arp 	completedARPResolution:count 	0
attr title  "ARP completed resolutions, count"
scalar SimpleRREQ.host[3].networkLayer.arp 	initiatedARPResolution:count 	0
attr title  "ARP initiated resolutions, count"
scalar SimpleRREQ.host[3].lo0.lo 	droppedPkBitError:count 	0
attr interpolationmode  none
attr source  dropPkBitError
attr title  "packets dropped/bit error, count"
scalar SimpleRREQ.host[3].lo0.lo 	droppedPkBitError:sum(packetBytes) 	0
attr interpolationmode  none
attr source  dropPkBitError
attr title  "packets dropped/bit error, sum(packetBytes)"
scalar SimpleRREQ.host[3].lo0.lo 	rcvdPkFromHL:count 	0
attr interpolationmode  none
attr source  packetReceivedFromUpper
attr title  "packets received from higher layer, count"
scalar SimpleRREQ.host[3].lo0.lo 	rcvdPkFromHL:sum(packetBytes) 	0
attr interpolationmode  none
attr source  packetReceivedFromUpper
attr title  "packets received from higher layer, sum(packetBytes)"
scalar SimpleRREQ.host[3].lo0.lo 	passedUpPk:count 	0
attr interpolationmode  none
attr source  packetSentToUpper
attr title  "packets passed to higher layer, count"
scalar SimpleRREQ.host[3].lo0.lo 	passedUpPk:sum(packetBytes) 	0
attr interpolationmode  none
attr source  packetSentToUpper
attr title  "packets passed to higher layer, sum(packetBytes)"
scalar SimpleRREQ.host[3].wlan[0].queue 	queueLength:max 	1
attr interpolationmode  sample-hold
attr title  "queue length, max"
scalar SimpleRREQ.host[3].wlan[0].queue 	queueLength:timeavg 	4.8105461833333e-007
attr interpolationmode  sample-hold
attr title  "queue length, timeavg"
statistic SimpleRREQ.host[3].wlan[0].queue 	queueingTime:histogram
field count 12182
field mean 4.7386762600558e-008
field stddev 3.0036827428328e-006
field sum 0.000577265542
field sqrsum 1.0992567689384e-007
field min 0
field max 0.000191617284
attr interpolationmode  none
attr title  "queueing time, histogram"
bin	-INF	0
bin	-0.5	0
bin	-0.46666666666667	0
bin	-0.43333333333333	0
bin	-0.4	0
bin	-0.36666666666667	0
bin	-0.33333333333333	0
bin	-0.3	0
bin	-0.26666666666667	0
bin	-0.23333333333333	0
bin	-0.2	0
bin	-0.16666666666667	0
bin	-0.13333333333333	0
bin	-0.1	0
bin	-0.066666666666667	0
bin	-0.033333333333333	0
bin	0	12182
bin	0.033333333333333	0
bin	0.066666666666667	0
bin	0.1	0
bin	0.13333333333333	0
bin	0.16666666666667	0
bin	0.2	0
bin	0.23333333333333	0
bin	0.26666666666667	0
bin	0.3	0
bin	0.33333333333333	0
bin	0.36666666666667	0
bin	0.4	0
bin	0.43333333333333	0
bin	0.46666666666667	0
bin	0.5	0
scalar SimpleRREQ.host[3].wlan[0].queue 	dropPk:count 	0
attr interpolationmode  none
attr source  dropPkByQueue
attr title  "dropped packets, count"
scalar SimpleRREQ.host[3].wlan[0].queue 	dropPk:sum(packetBytes) 	0
attr interpolationmode  none
attr source  dropPkByQueue
attr title  "dropped packets, sum(packetBytes)"
scalar SimpleRREQ.host[3].wlan[0].queue 	rcvdPk:count 	12182
attr interpolationmode  none
attr title  "received packets, count"
scalar SimpleRREQ.host[3].wlan[0].queue 	rcvdPk:sum(packetBytes) 	341096
attr interpolationmode  none
attr title  "received packets, sum(packetBytes)"
scalar SimpleRREQ.host[3].wlan[0].mac 	droppedPkNotForUs:count 	0
attr interpolationmode  none
attr source  dropPkNotForUs
attr title  "packets dropped/not for us, count"
scalar SimpleRREQ.host[3].wlan[0].mac 	droppedPkNotForUs:sum(packetBytes) 	0
attr interpolationmode  none
attr source  dropPkNotForUs
attr title  "packets dropped/not for us, sum(packetBytes)"
scalar SimpleRREQ.host[3].wlan[0].mac 	rcvdPkFromHL:count 	12182
attr interpolationmode  none
attr source  packetReceivedFromUpper
attr title  "packets received from higher layer, count"
scalar SimpleRREQ.host[3].wlan[0].mac 	rcvdPkFromHL:sum(packetBytes) 	341096
attr interpolationmode  none
attr source  packetReceivedFromUpper
attr title  "packets received from higher layer, sum(packetBytes)"
scalar SimpleRREQ.host[3].wlan[0].mac 	passedUpPk:count 	88071
attr interpolationmode  none
attr source  packetSentToUpper
attr title  "packets passed to higher layer, count"
scalar SimpleRREQ.host[3].wlan[0].mac 	passedUpPk:sum(packetBytes) 	2465988
attr interpolationmode  none
attr source  packetSentToUpper
attr title  "packets passed to higher layer, sum(packetBytes)"
scalar SimpleRREQ.host[3].wlan[0].mac 	rcvdPkFromLL:count 	88071
attr interpolationmode  none
attr source  packetReceivedFromLower
attr title  "packets received from lower layer, count"
scalar SimpleRREQ.host[3].wlan[0].mac 	rcvdPkFromLL:sum(packetBytes) 	4227408
attr interpolationmode  none
attr source  packetReceivedFromLower
attr title  "packets received from lower layer, sum(packetBytes)"
scalar SimpleRREQ.host[3].wlan[0].mac 	sentDownPk:count 	12182
attr interpolationmode  none
attr source  packetSentToLower
attr title  "packets sent to lower layer, count"
scalar SimpleRREQ.host[3].wlan[0].mac 	sentDownPk:sum(packetBytes) 	584736
attr interpolationmode  none
attr source  packetSentToLower
attr title  "packets sent to lower layer, sum(packetBytes)"
statistic SimpleRREQ.host[3].wlan[0].radio 	symbolErrorRate:histogram
field count 88071
field mean 0.52601878030226
field stddev 0.49932539894927
field sum 46327
field sqrsum 46327
field min 0
field max 1
attr source  symbolErrorRate
attr title  "Symbol error rate, histogram"
bin	-INF	0
bin	-1	0
bin	0	41744
bin	1	46327
bin	2	0
statistic SimpleRREQ.host[3].wlan[0].radio 	bitErrorRate:histogram
field count 88071
field mean 0.52601878030226
field stddev 0.49932539894927
field sum 46327
field sqrsum 46327
field min 0
field max 1
attr source  bitErrorRate
attr title  "Bit error rate, histogram"
bin	-INF	0
bin	-1	0
bin	0	41744
bin	1	46327
bin	2	0
statistic SimpleRREQ.host[3].wlan[0].radio 	packetErrorRate:histogram
field count 88071
field mean 0.52601878030226
field stddev 0.49932539894927
field sum 46327
field sqrsum 46327
field min 0
field max 1
attr source  packetErrorRate
attr title  "Packet error rate, histogram"
bin	-INF	0
bin	-1	0
bin	0	41744
bin	1	46327
bin	2	0
statistic SimpleRREQ.host[3].wlan[0].radio 	minSNIR:histogram
field count 88071
field mean nan
field stddev nan
field sum nan
field sqrsum nan
field min nan
field max nan
attr source  minSNIR
attr title  "Min SNIR, histogram"
bin	-INF	88071
bin	nan	0
bin	nan	0
bin	nan	0
bin	nan	0
bin	nan	0
bin	nan	0
bin	nan	0
bin	nan	0
bin	nan	0
bin	nan	0
bin	nan	0
bin	nan	0
bin	nan	0
bin	nan	0
bin	nan	0
bin	nan	0
bin	nan	0
bin	nan	0
bin	nan	0
bin	nan	0
bin	nan	0
bin	nan	0
bin	nan	0
bin	nan	0
bin	nan	0
bin	nan	0
bin	nan	0
bin	nan	0
bin	nan	0
bin	nan	0
bin	nan	0
scalar SimpleRREQ.host[3].wlan[0].radio 	transmissionState:count 	24364
attr interpolationmode  sample-hold
attr source  transmissionStateChanged
attr title  "Radio transmission state, count"
scalar SimpleRREQ.host[3].wlan[0].radio 	receptionState:count 	176144
attr interpolationmode  sample-hold
attr source  receptionStateChanged
attr title  "Radio reception state, count"
scalar SimpleRREQ.host[3].wlan[0].radio 	radioMode:count 	2
attr interpolationmode  sample-hold
attr source  radioModeChanged
attr title  "Radio mode, count"
scalar SimpleRREQ.host[3].pingApp[0] 	"Pings sent" 	1196
scalar SimpleRREQ.host[3].pingApp[0] 	"ping loss rate (%)" 	100
scalar SimpleRREQ.host[3].pingApp[0] 	"ping out-of-order rate (%)" 	0
scalar SimpleRREQ.host[3].pingApp[0] 	numOutOfOrderArrivals:last 	nan
attr interpolationmode  none
attr title  "ping out-of-order arrivals, last"
scalar SimpleRREQ.host[3].pingApp[0] 	pingRxSeq:count 	0
attr interpolationmode  none
attr title  "ping rx seq, count"
scalar SimpleRREQ.host[3].pingApp[0] 	pingTxSeq:count 	1196
attr interpolationmode  none
attr title  "ping tx seq, count"
scalar SimpleRREQ.host[3].pingApp[0] 	numLost:last 	nan
attr interpolationmode  none
attr title  "pings lost, last"
statistic SimpleRREQ.host[3].pingApp[0] 	rtt:histogram
field count 0
field mean nan
field stddev nan
field sum 0
field sqrsum 0
field min nan
field max nan
attr interpolationmode  none
attr title  "ping round-trip time, histogram"
attr unit  s
bin	-INF	0
bin	-0.5	0
bin	-0.46666666666667	0
bin	-0.43333333333333	0
bin	-0.4	0
bin	-0.36666666666667	0
bin	-0.33333333333333	0
bin	-0.3	0
bin	-0.26666666666667	0
bin	-0.23333333333333	0
bin	-0.2	0
bin	-0.16666666666667	0
bin	-0.13333333333333	0
bin	-0.1	0
bin	-0.066666666666667	0
bin	-0.033333333333333	0
bin	0	0
bin	0.033333333333333	0
bin	0.066666666666667	0
bin	0.1	0
bin	0.13333333333333	0
bin	0.16666666666667	0
bin	0.2	0
bin	0.23333333333333	0
bin	0.26666666666667	0
bin	0.3	0
bin	0.33333333333333	0
bin	0.36666666666667	0
bin	0.4	0
bin	0.43333333333333	0
bin	0.46666666666667	0
bin	0.5	0
scalar SimpleRREQ.host[3].epf 	dataFwd:count 	315
attr interpolationmode  none
attr source  dataFwd
attr title  "Forward Data message, count"
scalar SimpleRREQ.host[3].epf 	dataDest:count 	331
attr interpolationmode  none
attr source  dataDest
attr title  "Received Data message on Destination, count"
scalar SimpleRREQ.host[3].epf 	dataRec:count 	10166
attr interpolationmode  none
attr source  dataRec
attr title  "Received Data message, count"
scalar SimpleRREQ.host[3].epf 	dataSent:count 	721
attr interpolationmode  none
attr source  dataSent
attr title  "Sent Data message, count"
scalar SimpleRREQ.host[3].epf 	destResp:count 	321
attr interpolationmode  none
attr source  destResp
attr title  "Response from destination, count"
scalar SimpleRREQ.host[3].epf 	destEnq:count 	321
attr interpolationmode  none
attr source  destEnq
attr title  "Enquire to Destination, count"
scalar SimpleRREQ.host[3].epf 	respNOkRec:count 	2990
attr interpolationmode  none
attr source  respNOkRec
attr title  "Received Not Ok Response message, count"
scalar SimpleRREQ.host[3].epf 	respNOkSent:count 	4544
attr interpolationmode  none
attr source  respNOkSent
attr title  "Sent Not Ok Response message, count"
scalar SimpleRREQ.host[3].epf 	respOkRec:count 	721
attr interpolationmode  none
attr source  respOkRec
attr title  "Received Ok Response message, count"
scalar SimpleRREQ.host[3].epf 	respOkSent:count 	1381
attr interpolationmode  none
attr source  respOkSent
attr title  "Sent Ok Response message, count"
scalar SimpleRREQ.host[3].epf 	respRec:count 	66784
attr interpolationmode  none
attr source  respRec
attr title  "Received Response message, count"
scalar SimpleRREQ.host[3].epf 	respSent:count 	0
attr interpolationmode  none
attr source  respSent
attr title  "Sent Response message, count"
scalar SimpleRREQ.host[3].epf 	enquireRec:count 	10322
attr interpolationmode  none
attr source  enquireRec
attr title  "Received Enquire message, count"
scalar SimpleRREQ.host[3].epf 	enquireSent:count 	384
attr interpolationmode  none
attr source  enquireSent
attr title  "Sent Enquire message, count"
scalar SimpleRREQ.host[3].epf 	rrep2Rec:count 	0
attr interpolationmode  none
attr source  rrep2Rec
attr title  "Received type 2 RREP, count"
scalar SimpleRREQ.host[3].epf 	rrep1Rec:count 	0
attr interpolationmode  none
attr source  rrep1Rec
attr title  "Received type 1 RREP, count"
scalar SimpleRREQ.host[3].epf 	rrepRec:count 	0
attr interpolationmode  none
attr source  rrepRec
attr title  "Received RREP, count"
scalar SimpleRREQ.host[3].epf 	rreq1Rec:count 	0
attr interpolationmode  none
attr source  rreq1Rec
attr title  "Received type 1 RREQ, count"
scalar SimpleRREQ.host[3].epf 	rreqRec:count 	0
attr interpolationmode  none
attr source  rreqRec
attr title  "Received RREQ, count"
scalar SimpleRREQ.host[3].epf 	rrepSent:count 	0
attr interpolationmode  none
attr source  rrepSent
attr title  "Sent RREP, count"
scalar SimpleRREQ.host[3].epf 	rreqSent:count 	0
attr interpolationmode  none
attr source  rreqSent
attr title  "Sent RREQ, count"
scalar SimpleRREQ.host[4].networkLayer.arp 	sentReply:count 	0
attr title  "ARP replies sent, count"
scalar SimpleRREQ.host[4].networkLayer.arp 	sentReq:count 	0
attr title  "ARP request sent, count"
scalar SimpleRREQ.host[4].networkLayer.arp 	failedARPResolution:count 	0
attr title  "ARP failed resolutions, count"
scalar SimpleRREQ.host[4].networkLayer.arp 	completedARPResolution:count 	0
attr title  "ARP completed resolutions, count"
scalar SimpleRREQ.host[4].networkLayer.arp 	initiatedARPResolution:count 	0
attr title  "ARP initiated resolutions, count"
scalar SimpleRREQ.host[4].lo0.lo 	droppedPkBitError:count 	0
attr interpolationmode  none
attr source  dropPkBitError
attr title  "packets dropped/bit error, count"
scalar SimpleRREQ.host[4].lo0.lo 	droppedPkBitError:sum(packetBytes) 	0
attr interpolationmode  none
attr source  dropPkBitError
attr title  "packets dropped/bit error, sum(packetBytes)"
scalar SimpleRREQ.host[4].lo0.lo 	rcvdPkFromHL:count 	0
attr interpolationmode  none
attr source  packetReceivedFromUpper
attr title  "packets received from higher layer, count"
scalar SimpleRREQ.host[4].lo0.lo 	rcvdPkFromHL:sum(packetBytes) 	0
attr interpolationmode  none
attr source  packetReceivedFromUpper
attr title  "packets received from higher layer, sum(packetBytes)"
scalar SimpleRREQ.host[4].lo0.lo 	passedUpPk:count 	0
attr interpolationmode  none
attr source  packetSentToUpper
attr title  "packets passed to higher layer, count"
scalar SimpleRREQ.host[4].lo0.lo 	passedUpPk:sum(packetBytes) 	0
attr interpolationmode  none
attr source  packetSentToUpper
attr title  "packets passed to higher layer, sum(packetBytes)"
scalar SimpleRREQ.host[4].wlan[0].queue 	queueLength:max 	3
attr interpolationmode  sample-hold
attr title  "queue length, max"
scalar SimpleRREQ.host[4].wlan[0].queue 	queueLength:timeavg 	0.00011087960012417
attr interpolationmode  sample-hold
attr title  "queue length, timeavg"
statistic SimpleRREQ.host[4].wlan[0].queue 	queueingTime:histogram
field count 12651
field mean 1.051739152233e-005
field stddev 4.6673891868811e-005
field sum 0.133055520149
field sqrsum 2.8956817104209e-005
field min 0
field max 0.000575670157
attr interpolationmode  none
attr title  "queueing time, histogram"
bin	-INF	0
bin	-0.0001919451375	0
bin	-0.0001663524525	0
bin	-0.0001407597675	0
bin	-0.0001151670825	0
bin	-8.95743975e-005	0
bin	-6.39817125e-005	0
bin	-3.83890275e-005	0
bin	-1.27963425e-005	12001
bin	1.27963425e-005	0
bin	3.83890275e-005	0
bin	6.39817125e-005	0
bin	8.95743975e-005	0
bin	0.0001151670825	0
bin	0.0001407597675	0
bin	0.0001663524525	522
bin	0.0001919451375	87
bin	0.0002175378225	0
bin	0.0002431305075	0
bin	0.0002687231925	0
bin	0.0002943158775	0
bin	0.0003199085625	0
bin	0.0003455012475	0
bin	0.0003710939325	38
bin	0.0003966866175	0
bin	0.0004222793025	0
bin	0.0004478719875	0
bin	0.0004734646725	0
bin	0.0004990573575	0
bin	0.0005246500425	0
bin	0.0005502427275	3
bin	0.0005758354125	0
scalar SimpleRREQ.host[4].wlan[0].queue 	dropPk:count 	0
attr interpolationmode  none
attr source  dropPkByQueue
attr title  "dropped packets, count"
scalar SimpleRREQ.host[4].wlan[0].queue 	dropPk:sum(packetBytes) 	0
attr interpolationmode  none
attr source  dropPkByQueue
attr title  "dropped packets, sum(packetBytes)"
scalar SimpleRREQ.host[4].wlan[0].queue 	rcvdPk:count 	12651
attr interpolationmode  none
attr title  "received packets, count"
scalar SimpleRREQ.host[4].wlan[0].queue 	rcvdPk:sum(packetBytes) 	354228
attr interpolationmode  none
attr title  "received packets, sum(packetBytes)"
scalar SimpleRREQ.host[4].wlan[0].mac 	droppedPkNotForUs:count 	0
attr interpolationmode  none
attr source  dropPkNotForUs
attr title  "packets dropped/not for us, count"
scalar SimpleRREQ.host[4].wlan[0].mac 	droppedPkNotForUs:sum(packetBytes) 	0
attr interpolationmode  none
attr source  dropPkNotForUs
attr title  "packets dropped/not for us, sum(packetBytes)"
scalar SimpleRREQ.host[4].wlan[0].mac 	rcvdPkFromHL:count 	12651
attr interpolationmode  none
attr source  packetReceivedFromUpper
attr title  "packets received from higher layer, count"
scalar SimpleRREQ.host[4].wlan[0].mac 	rcvdPkFromHL:sum(packetBytes) 	354228
attr interpolationmode  none
attr source  packetReceivedFromUpper
attr title  "packets received from higher layer, sum(packetBytes)"
scalar SimpleRREQ.host[4].wlan[0].mac 	passedUpPk:count 	90291
attr interpolationmode  none
attr source  packetSentToUpper
attr title  "packets passed to higher layer, count"
scalar SimpleRREQ.host[4].wlan[0].mac 	passedUpPk:sum(packetBytes) 	2528148
attr interpolationmode  none
attr source  packetSentToUpper
attr title  "packets passed to higher layer, sum(packetBytes)"
scalar SimpleRREQ.host[4].wlan[0].mac 	rcvdPkFromLL:count 	90291
attr interpolationmode  none
attr source  packetReceivedFromLower
attr title  "packets received from lower layer, count"
scalar SimpleRREQ.host[4].wlan[0].mac 	rcvdPkFromLL:sum(packetBytes) 	4333968
attr interpolationmode  none
attr source  packetReceivedFromLower
attr title  "packets received from lower layer, sum(packetBytes)"
scalar SimpleRREQ.host[4].wlan[0].mac 	sentDownPk:count 	12651
attr interpolationmode  none
attr source  packetSentToLower
attr title  "packets sent to lower layer, count"
scalar SimpleRREQ.host[4].wlan[0].mac 	sentDownPk:sum(packetBytes) 	607248
attr interpolationmode  none
attr source  packetSentToLower
attr title  "packets sent to lower layer, sum(packetBytes)"
statistic SimpleRREQ.host[4].wlan[0].radio 	symbolErrorRate:histogram
field count 90291
field mean 0.50176651050492
field stddev 0.49999964826186
field sum 45305
field sqrsum 45305
field min 0
field max 1
attr source  symbolErrorRate
attr title  "Symbol error rate, histogram"
bin	-INF	0
bin	-1	0
bin	0	44986
bin	1	45305
bin	2	0
statistic SimpleRREQ.host[4].wlan[0].radio 	bitErrorRate:histogram
field count 90291
field mean 0.50176651050492
field stddev 0.49999964826186
field sum 45305
field sqrsum 45305
field min 0
field max 1
attr source  bitErrorRate
attr title  "Bit error rate, histogram"
bin	-INF	0
bin	-1	0
bin	0	44986
bin	1	45305
bin	2	0
statistic SimpleRREQ.host[4].wlan[0].radio 	packetErrorRate:histogram
field count 90291
field mean 0.50176651050492
field stddev 0.49999964826186
field sum 45305
field sqrsum 45305
field min 0
field max 1
attr source  packetErrorRate
attr title  "Packet error rate, histogram"
bin	-INF	0
bin	-1	0
bin	0	44986
bin	1	45305
bin	2	0
statistic SimpleRREQ.host[4].wlan[0].radio 	minSNIR:histogram
field count 90291
field mean nan
field stddev nan
field sum nan
field sqrsum nan
field min nan
field max nan
attr source  minSNIR
attr title  "Min SNIR, histogram"
bin	-INF	90291
bin	nan	0
bin	nan	0
bin	nan	0
bin	nan	0
bin	nan	0
bin	nan	0
bin	nan	0
bin	nan	0
bin	nan	0
bin	nan	0
bin	nan	0
bin	nan	0
bin	nan	0
bin	nan	0
bin	nan	0
bin	nan	0
bin	nan	0
bin	nan	0
bin	nan	0
bin	nan	0
bin	nan	0
bin	nan	0
bin	nan	0
bin	nan	0
bin	nan	0
bin	nan	0
bin	nan	0
bin	nan	0
bin	nan	0
bin	nan	0
bin	nan	0
scalar SimpleRREQ.host[4].wlan[0].radio 	transmissionState:count 	25302
attr interpolationmode  sample-hold
attr source  transmissionStateChanged
attr title  "Radio transmission state, count"
scalar SimpleRREQ.host[4].wlan[0].radio 	receptionState:count 	180584
attr interpolationmode  sample-hold
attr source  receptionStateChanged
attr title  "Radio reception state, count"
scalar SimpleRREQ.host[4].wlan[0].radio 	radioMode:count 	2
attr interpolationmode  sample-hold
attr source  radioModeChanged
attr title  "Radio mode, count"
scalar SimpleRREQ.host[4].pingApp[0] 	"Pings sent" 	1197
scalar SimpleRREQ.host[4].pingApp[0] 	"ping loss rate (%)" 	100
scalar SimpleRREQ.host[4].pingApp[0] 	"ping out-of-order rate (%)" 	0
scalar SimpleRREQ.host[4].pingApp[0] 	numOutOfOrderArrivals:last 	nan
attr interpolationmode  none
attr title  "ping out-of-order arrivals, last"
scalar SimpleRREQ.host[4].pingApp[0] 	pingRxSeq:count 	0
attr interpolationmode  none
attr title  "ping rx seq, count"
scalar SimpleRREQ.host[4].pingApp[0] 	pingTxSeq:count 	1197
attr interpolationmode  none
attr title  "ping tx seq, count"
scalar SimpleRREQ.host[4].pingApp[0] 	numLost:last 	nan
attr interpolationmode  none
attr title  "pings lost, last"
statistic SimpleRREQ.host[4].pingApp[0] 	rtt:histogram
field count 0
field mean nan
field stddev nan
field sum 0
field sqrsum 0
field min nan
field max nan
attr interpolationmode  none
attr title  "ping round-trip time, histogram"
attr unit  s
bin	-INF	0
bin	-0.5	0
bin	-0.46666666666667	0
bin	-0.43333333333333	0
bin	-0.4	0
bin	-0.36666666666667	0
bin	-0.33333333333333	0
bin	-0.3	0
bin	-0.26666666666667	0
bin	-0.23333333333333	0
bin	-0.2	0
bin	-0.16666666666667	0
bin	-0.13333333333333	0
bin	-0.1	0
bin	-0.066666666666667	0
bin	-0.033333333333333	0
bin	0	0
bin	0.033333333333333	0
bin	0.066666666666667	0
bin	0.1	0
bin	0.13333333333333	0
bin	0.16666666666667	0
bin	0.2	0
bin	0.23333333333333	0
bin	0.26666666666667	0
bin	0.3	0
bin	0.33333333333333	0
bin	0.36666666666667	0
bin	0.4	0
bin	0.43333333333333	0
bin	0.46666666666667	0
bin	0.5	0
scalar SimpleRREQ.host[4].epf 	dataFwd:count 	351
attr interpolationmode  none
attr source  dataFwd
attr title  "Forward Data message, count"
scalar SimpleRREQ.host[4].epf 	dataDest:count 	288
attr interpolationmode  none
attr source  dataDest
attr title  "Received Data message on Destination, count"
scalar SimpleRREQ.host[4].epf 	dataRec:count 	11950
attr interpolationmode  none
attr source  dataRec
attr title  "Received Data message, count"
scalar SimpleRREQ.host[4].epf 	dataSent:count 	669
attr interpolationmode  none
attr source  dataSent
attr title  "Sent Data message, count"
scalar SimpleRREQ.host[4].epf 	destResp:count 	244
attr interpolationmode  none
attr source  destResp
attr title  "Response from destination, count"
scalar SimpleRREQ.host[4].epf 	destEnq:count 	244
attr interpolationmode  none
attr source  destEnq
attr title  "Enquire to Destination, count"
scalar SimpleRREQ.host[4].epf 	respNOkRec:count 	2689
attr interpolationmode  none
attr source  respNOkRec
attr title  "Received Not Ok Response message, count"
scalar SimpleRREQ.host[4].epf 	respNOkSent:count 	4514
attr interpolationmode  none
attr source  respNOkSent
attr title  "Sent Not Ok Response message, count"
scalar SimpleRREQ.host[4].epf 	respOkRec:count 	669
attr interpolationmode  none
attr source  respOkRec
attr title  "Received Ok Response message, count"
scalar SimpleRREQ.host[4].epf 	respOkSent:count 	1748
attr interpolationmode  none
attr source  respOkSent
attr title  "Sent Ok Response message, count"
scalar SimpleRREQ.host[4].epf 	respRec:count 	66801
attr interpolationmode  none
attr source  respRec
attr title  "Received Response message, count"
scalar SimpleRREQ.host[4].epf 	respSent:count 	0
attr interpolationmode  none
attr source  respSent
attr title  "Sent Response message, count"
scalar SimpleRREQ.host[4].epf 	enquireRec:count 	10741
attr interpolationmode  none
attr source  enquireRec
attr title  "Received Enquire message, count"
scalar SimpleRREQ.host[4].epf 	enquireSent:count 	404
attr interpolationmode  none
attr source  enquireSent
attr title  "Sent Enquire message, count"
scalar SimpleRREQ.host[4].epf 	rrep2Rec:count 	0
attr interpolationmode  none
attr source  rrep2Rec
attr title  "Received type 2 RREP, count"
scalar SimpleRREQ.host[4].epf 	rrep1Rec:count 	0
attr interpolationmode  none
attr source  rrep1Rec
attr title  "Received type 1 RREP, count"
scalar SimpleRREQ.host[4].epf 	rrepRec:count 	0
attr interpolationmode  none
attr source  rrepRec
attr title  "Received RREP, count"
scalar SimpleRREQ.host[4].epf 	rreq1Rec:count 	0
attr interpolationmode  none
attr source  rreq1Rec
attr title  "Received type 1 RREQ, count"
scalar SimpleRREQ.host[4].epf 	rreqRec:count 	0
attr interpolationmode  none
attr source  rreqRec
attr title  "Received RREQ, count"
scalar SimpleRREQ.host[4].epf 	rrepSent:count 	0
attr interpolationmode  none
attr source  rrepSent
attr title  "Sent RREP, count"
scalar SimpleRREQ.host[4].epf 	rreqSent:count 	0
attr interpolationmode  none
attr source  rreqSent
attr title  "Sent RREQ, count"
scalar SimpleRREQ.host[5].networkLayer.arp 	sentReply:count 	0
attr title  "ARP replies sent, count"
scalar SimpleRREQ.host[5].networkLayer.arp 	sentReq:count 	0
attr title  "ARP request sent, count"
scalar SimpleRREQ.host[5].networkLayer.arp 	failedARPResolution:count 	0
attr title  "ARP failed resolutions, count"
scalar SimpleRREQ.host[5].networkLayer.arp 	completedARPResolution:count 	0
attr title  "ARP completed resolutions, count"
scalar SimpleRREQ.host[5].networkLayer.arp 	initiatedARPResolution:count 	0
attr title  "ARP initiated resolutions, count"
scalar SimpleRREQ.host[5].lo0.lo 	droppedPkBitError:count 	0
attr interpolationmode  none
attr source  dropPkBitError
attr title  "packets dropped/bit error, count"
scalar SimpleRREQ.host[5].lo0.lo 	droppedPkBitError:sum(packetBytes) 	0
attr interpolationmode  none
attr source  dropPkBitError
attr title  "packets dropped/bit error, sum(packetBytes)"
scalar SimpleRREQ.host[5].lo0.lo 	rcvdPkFromHL:count 	0
attr interpolationmode  none
attr source  packetReceivedFromUpper
attr title  "packets received from higher layer, count"
scalar SimpleRREQ.host[5].lo0.lo 	rcvdPkFromHL:sum(packetBytes) 	0
attr interpolationmode  none
attr source  packetReceivedFromUpper
attr title  "packets received from higher layer, sum(packetBytes)"
scalar SimpleRREQ.host[5].lo0.lo 	passedUpPk:count 	0
attr interpolationmode  none
attr source  packetSentToUpper
attr title  "packets passed to higher layer, count"
scalar SimpleRREQ.host[5].lo0.lo 	passedUpPk:sum(packetBytes) 	0
attr interpolationmode  none
attr source  packetSentToUpper
attr title  "packets passed to higher layer, sum(packetBytes)"
scalar SimpleRREQ.host[5].wlan[0].queue 	queueLength:max 	3
attr interpolationmode  sample-hold
attr title  "queue length, max"
scalar SimpleRREQ.host[5].wlan[0].queue 	queueLength:timeavg 	0.00012354327097333
attr interpolationmode  sample-hold
attr title  "queue length, timeavg"
statistic SimpleRREQ.host[5].wlan[0].queue 	queueingTime:histogram
field count 11909
field mean 1.2448729966244e-005
field stddev 5.18604967871e-005
field sum 0.148251925168
field sqrsum 3.3872246683765e-005
field min 0
field max 0.000575758387
attr interpolationmode  none
attr title  "queueing time, histogram"
bin	-INF	0
bin	-9.59806225e-005	0
bin	-8.3183206166667e-005	0
bin	-7.0385789833333e-005	0
bin	-5.75883735e-005	0
bin	-4.4790957166667e-005	0
bin	-3.1993540833333e-005	0
bin	-1.91961245e-005	0
bin	-6.3987081666667e-006	11207
bin	6.3987081666667e-006	0
bin	1.91961245e-005	0
bin	3.1993540833333e-005	0
bin	4.4790957166667e-005	0
bin	5.75883735e-005	0
bin	7.0385789833333e-005	0
bin	8.3183206166667e-005	0
bin	9.59806225e-005	0
bin	0.00010877803883333	0
bin	0.00012157545516667	0
bin	0.0001343728715	0
bin	0.00014717028783333	0
bin	0.00015996770416667	0
bin	0.0001727651205	0
bin	0.00018556253683333	634
bin	0.00019835995316667	0
bin	0.0002111573695	0
bin	0.00022395478583333	0
bin	0.00023675220216667	0
bin	0.0002495496185	0
bin	0.00026234703483333	0
bin	0.00027514445116667	0
bin	0.0002879418675	68
scalar SimpleRREQ.host[5].wlan[0].queue 	dropPk:count 	0
attr interpolationmode  none
attr source  dropPkByQueue
attr title  "dropped packets, count"
scalar SimpleRREQ.host[5].wlan[0].queue 	dropPk:sum(packetBytes) 	0
attr interpolationmode  none
attr source  dropPkByQueue
attr title  "dropped packets, sum(packetBytes)"
scalar SimpleRREQ.host[5].wlan[0].queue 	rcvdPk:count 	11909
attr interpolationmode  none
attr title  "received packets, count"
scalar SimpleRREQ.host[5].wlan[0].queue 	rcvdPk:sum(packetBytes) 	333452
attr interpolationmode  none
attr title  "received packets, sum(packetBytes)"
scalar SimpleRREQ.host[5].wlan[0].mac 	droppedPkNotForUs:count 	0
attr interpolationmode  none
attr source  dropPkNotForUs
attr title  "packets dropped/not for us, count"
scalar SimpleRREQ.host[5].wlan[0].mac 	droppedPkNotForUs:sum(packetBytes) 	0
attr interpolationmode  none
attr source  dropPkNotForUs
attr title  "packets dropped/not for us, sum(packetBytes)"
scalar SimpleRREQ.host[5].wlan[0].mac 	rcvdPkFromHL:count 	11909
attr interpolationmode  none
attr source  packetReceivedFromUpper
attr title  "packets received from higher layer, count"
scalar SimpleRREQ.host[5].wlan[0].mac 	rcvdPkFromHL:sum(packetBytes) 	333452
attr interpolationmode  none
attr source  packetReceivedFromUpper
attr title  "packets received from higher layer, sum(packetBytes)"
scalar SimpleRREQ.host[5].wlan[0].mac 	passedUpPk:count 	87688
attr interpolationmode  none
attr source  packetSentToUpper
attr title  "packets passed to higher layer, count"
scalar SimpleRREQ.host[5].wlan[0].mac 	passedUpPk:sum(packetBytes) 	2455264
attr interpolationmode  none
attr source  packetSentToUpper
attr title  "packets passed to higher layer, sum(packetBytes)"
scalar SimpleRREQ.host[5].wlan[0].mac 	rcvdPkFromLL:count 	87688
attr interpolationmode  none
attr source  packetReceivedFromLower
attr title  "packets received from lower layer, count"
scalar SimpleRREQ.host[5].wlan[0].mac 	rcvdPkFromLL:sum(packetBytes) 	4209024
attr interpolationmode  none
attr source  packetReceivedFromLower
attr title  "packets received from lower layer, sum(packetBytes)"
scalar SimpleRREQ.host[5].wlan[0].mac 	sentDownPk:count 	11909
attr interpolationmode  none
attr source  packetSentToLower
attr title  "packets sent to lower layer, count"
scalar SimpleRREQ.host[5].wlan[0].mac 	sentDownPk:sum(packetBytes) 	571632
attr interpolationmode  none
attr source  packetSentToLower
attr title  "packets sent to lower layer, sum(packetBytes)"
statistic SimpleRREQ.host[5].wlan[0].radio 	symbolErrorRate:histogram
field count 87688
field mean 0.50228081379436
field stddev 0.49999764887334
field sum 44044
field sqrsum 44044
field min 0
field max 1
attr source  symbolErrorRate
attr title  "Symbol error rate, histogram"
bin	-INF	0
bin	-1	0
bin	0	43644
bin	1	44044
bin	2	0
statistic SimpleRREQ.host[5].wlan[0].radio 	bitErrorRate:histogram
field count 87688
field mean 0.50228081379436
field stddev 0.49999764887334
field sum 44044
field sqrsum 44044
field min 0
field max 1
attr source  bitErrorRate
attr title  "Bit error rate, histogram"
bin	-INF	0
bin	-1	0
bin	0	43644
bin	1	44044
bin	2	0
statistic SimpleRREQ.host[5].wlan[0].radio 	packetErrorRate:histogram
field count 87688
field mean 0.50228081379436
field stddev 0.49999764887334
field sum 44044
field sqrsum 44044
field min 0
field max 1
attr source  packetErrorRate
attr title  "Packet error rate, histogram"
bin	-INF	0
bin	-1	0
bin	0	43644
bin	1	44044
bin	2	0
statistic SimpleRREQ.host[5].wlan[0].radio 	minSNIR:histogram
field count 87688
field mean nan
field stddev nan
field sum nan
field sqrsum nan
field min nan
field max nan
attr source  minSNIR
attr title  "Min SNIR, histogram"
bin	-INF	87688
bin	nan	0
bin	nan	0
bin	nan	0
bin	nan	0
bin	nan	0
bin	nan	0
bin	nan	0
bin	nan	0
bin	nan	0
bin	nan	0
bin	nan	0
bin	nan	0
bin	nan	0
bin	nan	0
bin	nan	0
bin	nan	0
bin	nan	0
bin	nan	0
bin	nan	0
bin	nan	0
bin	nan	0
bin	nan	0
bin	nan	0
bin	nan	0
bin	nan	0
bin	nan	0
bin	nan	0
bin	nan	0
bin	nan	0
bin	nan	0
bin	nan	0
scalar SimpleRREQ.host[5].wlan[0].radio 	transmissionState:count 	23818
attr interpolationmode  sample-hold
attr source  transmissionStateChanged
attr title  "Radio transmission state, count"
scalar SimpleRREQ.host[5].wlan[0].radio 	receptionState:count 	175383
attr interpolationmode  sample-hold
attr source  receptionStateChanged
attr title  "Radio reception state, count"
scalar SimpleRREQ.host[5].wlan[0].radio 	radioMode:count 	2
attr interpolationmode  sample-hold
attr source  radioModeChanged
attr title  "Radio mode, count"
scalar SimpleRREQ.host[5].pingApp[0] 	"Pings sent" 	1196
scalar SimpleRREQ.host[5].pingApp[0] 	"ping loss rate (%)" 	100
scalar SimpleRREQ.host[5].pingApp[0] 	"ping out-of-order rate (%)" 	0
scalar SimpleRREQ.host[5].pingApp[0] 	numOutOfOrderArrivals:last 	nan
attr interpolationmode  none
attr title  "ping out-of-order arrivals, last"
scalar SimpleRREQ.host[5].pingApp[0] 	pingRxSeq:count 	0
attr interpolationmode  none
attr title  "ping rx seq, count"
scalar SimpleRREQ.host[5].pingApp[0] 	pingTxSeq:count 	1196
attr interpolationmode  none
attr title  "ping tx seq, count"
scalar SimpleRREQ.host[5].pingApp[0] 	numLost:last 	nan
attr interpolationmode  none
attr title  "pings lost, last"
statistic SimpleRREQ.host[5].pingApp[0] 	rtt:histogram
field count 0
field mean nan
field stddev nan
field sum 0
field sqrsum 0
field min nan
field max nan
attr interpolationmode  none
attr title  "ping round-trip time, histogram"
attr unit  s
bin	-INF	0
bin	-0.5	0
bin	-0.46666666666667	0
bin	-0.43333333333333	0
bin	-0.4	0
bin	-0.36666666666667	0
bin	-0.33333333333333	0
bin	-0.3	0
bin	-0.26666666666667	0
bin	-0.23333333333333	0
bin	-0.2	0
bin	-0.16666666666667	0
bin	-0.13333333333333	0
bin	-0.1	0
bin	-0.066666666666667	0
bin	-0.033333333333333	0
bin	0	0
bin	0.033333333333333	0
bin	0.066666666666667	0
bin	0.1	0
bin	0.13333333333333	0
bin	0.16666666666667	0
bin	0.2	0
bin	0.23333333333333	0
bin	0.26666666666667	0
bin	0.3	0
bin	0.33333333333333	0
bin	0.36666666666667	0
bin	0.4	0
bin	0.43333333333333	0
bin	0.46666666666667	0
bin	0.5	0
scalar SimpleRREQ.host[5].epf 	dataFwd:count 	232
attr interpolationmode  none
attr source  dataFwd
attr title  "Forward Data message, count"
scalar SimpleRREQ.host[5].epf 	dataDest:count 	471
attr interpolationmode  none
attr source  dataDest
attr title  "Received Data message on Destination, count"
scalar SimpleRREQ.host[5].epf 	dataRec:count 	9932
attr interpolationmode  none
attr source  dataRec
attr title  "Received Data message, count"
scalar SimpleRREQ.host[5].epf 	dataSent:count 	586
attr interpolationmode  none
attr source  dataSent
attr title  "Sent Data message, count"
scalar SimpleRREQ.host[5].epf 	destResp:count 	427
attr interpolationmode  none
attr source  destResp
attr title  "Response from destination, count"
scalar SimpleRREQ.host[5].epf 	destEnq:count 	427
attr interpolationmode  none
attr source  destEnq
attr title  "Enquire to Destination, count"
scalar SimpleRREQ.host[5].epf 	respNOkRec:count 	2166
attr interpolationmode  none
attr source  respNOkRec
attr title  "Received Not Ok Response message, count"
scalar SimpleRREQ.host[5].epf 	respNOkSent:count 	5144
attr interpolationmode  none
attr source  respNOkSent
attr title  "Sent Not Ok Response message, count"
scalar SimpleRREQ.host[5].epf 	respOkRec:count 	586
attr interpolationmode  none
attr source  respOkRec
attr title  "Received Ok Response message, count"
scalar SimpleRREQ.host[5].epf 	respOkSent:count 	1349
attr interpolationmode  none
attr source  respOkSent
attr title  "Sent Ok Response message, count"
scalar SimpleRREQ.host[5].epf 	respRec:count 	66785
attr interpolationmode  none
attr source  respRec
attr title  "Received Response message, count"
scalar SimpleRREQ.host[5].epf 	respSent:count 	0
attr interpolationmode  none
attr source  respSent
attr title  "Sent Response message, count"
scalar SimpleRREQ.host[5].epf 	enquireRec:count 	10172
attr interpolationmode  none
attr source  enquireRec
attr title  "Received Enquire message, count"
scalar SimpleRREQ.host[5].epf 	enquireSent:count 	277
attr interpolationmode  none
attr source  enquireSent
attr title  "Sent Enquire message, count"
scalar SimpleRREQ.host[5].epf 	rrep2Rec:count 	0
attr interpolationmode  none
attr source  rrep2Rec
attr title  "Received type 2 RREP, count"
scalar SimpleRREQ.host[5].epf 	rrep1Rec:count 	0
attr interpolationmode  none
attr source  rrep1Rec
attr title  "Received type 1 RREP, count"
scalar SimpleRREQ.host[5].epf 	rrepRec:count 	0
attr interpolationmode  none
attr source  rrepRec
attr title  "Received RREP, count"
scalar SimpleRREQ.host[5].epf 	rreq1Rec:count 	0
attr interpolationmode  none
attr source  rreq1Rec
attr title  "Received type 1 RREQ, count"
scalar SimpleRREQ.host[5].epf 	rreqRec:count 	0
attr interpolationmode  none
attr source  rreqRec
attr title  "Received RREQ, count"
scalar SimpleRREQ.host[5].epf 	rrepSent:count 	0
attr interpolationmode  none
attr source  rrepSent
attr title  "Sent RREP, count"
scalar SimpleRREQ.host[5].epf 	rreqSent:count 	0
attr interpolationmode  none
attr source  rreqSent
attr title  "Sent RREQ, count"
scalar SimpleRREQ.host[6].networkLayer.arp 	sentReply:count 	0
attr title  "ARP replies sent, count"
scalar SimpleRREQ.host[6].networkLayer.arp 	sentReq:count 	0
attr title  "ARP request sent, count"
scalar SimpleRREQ.host[6].networkLayer.arp 	failedARPResolution:count 	0
attr title  "ARP failed resolutions, count"
scalar SimpleRREQ.host[6].networkLayer.arp 	completedARPResolution:count 	0
attr title  "ARP completed resolutions, count"
scalar SimpleRREQ.host[6].networkLayer.arp 	initiatedARPResolution:count 	0
attr title  "ARP initiated resolutions, count"
scalar SimpleRREQ.host[6].lo0.lo 	droppedPkBitError:count 	0
attr interpolationmode  none
attr source  dropPkBitError
attr title  "packets dropped/bit error, count"
scalar SimpleRREQ.host[6].lo0.lo 	droppedPkBitError:sum(packetBytes) 	0
attr interpolationmode  none
attr source  dropPkBitError
attr title  "packets dropped/bit error, sum(packetBytes)"
scalar SimpleRREQ.host[6].lo0.lo 	rcvdPkFromHL:count 	0
attr interpolationmode  none
attr source  packetReceivedFromUpper
attr title  "packets received from higher layer, count"
scalar SimpleRREQ.host[6].lo0.lo 	rcvdPkFromHL:sum(packetBytes) 	0
attr interpolationmode  none
attr source  packetReceivedFromUpper
attr title  "packets received from higher layer, sum(packetBytes)"
scalar SimpleRREQ.host[6].lo0.lo 	passedUpPk:count 	0
attr interpolationmode  none
attr source  packetSentToUpper
attr title  "packets passed to higher layer, count"
scalar SimpleRREQ.host[6].lo0.lo 	passedUpPk:sum(packetBytes) 	0
attr interpolationmode  none
attr source  packetSentToUpper
attr title  "packets passed to higher layer, sum(packetBytes)"
scalar SimpleRREQ.host[6].wlan[0].queue 	queueLength:max 	3
attr interpolationmode  sample-hold
attr title  "queue length, max"
scalar SimpleRREQ.host[6].wlan[0].queue 	queueLength:timeavg 	0.00012672852297083
attr interpolationmode  sample-hold
attr title  "queue length, timeavg"
statistic SimpleRREQ.host[6].wlan[0].queue 	queueingTime:histogram
field count 12386
field mean 1.2277912769659e-005
field stddev 5.0828606000222e-005
field sum 0.152074227565
field sqrsum 3.3864386023018e-005
field min 0
field max 0.000575697269
attr interpolationmode  none
attr title  "queueing time, histogram"
bin	-INF	0
bin	-0.0001918176335	0
bin	-0.00016624194903333	0
bin	-0.00014066626456667	0
bin	-0.0001150905801	0
bin	-8.9514895633333e-005	0
bin	-6.3939211166667e-005	0
bin	-3.83635267e-005	0
bin	-1.2787842233333e-005	11654
bin	1.2787842233333e-005	0
bin	3.83635267e-005	0
bin	6.3939211166667e-005	0
bin	8.9514895633333e-005	0
bin	0.0001150905801	0
bin	0.00014066626456667	0
bin	0.00016624194903333	363
bin	0.0001918176335	311
bin	0.00021739331796667	0
bin	0.00024296900243333	0
bin	0.0002685446869	0
bin	0.00029412037136667	0
bin	0.00031969605583333	0
bin	0.0003452717403	0
bin	0.00037084742476667	55
bin	0.00039642310923333	0
bin	0.0004219987937	0
bin	0.00044757447816667	0
bin	0.00047315016263333	0
bin	0.0004987258471	0
bin	0.00052430153156667	0
bin	0.00054987721603333	0
bin	0.0005754529005	3
scalar SimpleRREQ.host[6].wlan[0].queue 	dropPk:count 	0
attr interpolationmode  none
attr source  dropPkByQueue
attr title  "dropped packets, count"
scalar SimpleRREQ.host[6].wlan[0].queue 	dropPk:sum(packetBytes) 	0
attr interpolationmode  none
attr source  dropPkByQueue
attr title  "dropped packets, sum(packetBytes)"
scalar SimpleRREQ.host[6].wlan[0].queue 	rcvdPk:count 	12386
attr interpolationmode  none
attr title  "received packets, count"
scalar SimpleRREQ.host[6].wlan[0].queue 	rcvdPk:sum(packetBytes) 	346808
attr interpolationmode  none
attr title  "received packets, sum(packetBytes)"
scalar SimpleRREQ.host[6].wlan[0].mac 	droppedPkNotForUs:count 	0
attr interpolationmode  none
attr source  dropPkNotForUs
attr title  "packets dropped/not for us, count"
scalar SimpleRREQ.host[6].wlan[0].mac 	droppedPkNotForUs:sum(packetBytes) 	0
attr interpolationmode  none
attr source  dropPkNotForUs
attr title  "packets dropped/not for us, sum(packetBytes)"
scalar SimpleRREQ.host[6].wlan[0].mac 	rcvdPkFromHL:count 	12386
attr interpolationmode  none
attr source  packetReceivedFromUpper
attr title  "packets received from higher layer, count"
[...]
attr source  packetSentToUpper
attr title  "packets passed to higher layer, count"
scalar SimpleRREQ.host[28].wlan[0].mac 	passedUpPk:sum(packetBytes) 	2652692
attr interpolationmode  none
attr source  packetSentToUpper
attr title  "packets passed to higher layer, sum(packetBytes)"
scalar SimpleRREQ.host[28].wlan[0].mac 	rcvdPkFromLL:count 	94739
attr interpolationmode  none
attr source  packetReceivedFromLower
attr title  "packets received from lower layer, count"
scalar SimpleRREQ.host[28].wlan[0].mac 	rcvdPkFromLL:sum(packetBytes) 	4547472
attr interpolationmode  none
attr source  packetReceivedFromLower
attr title  "packets received from lower layer, sum(packetBytes)"
scalar SimpleRREQ.host[28].wlan[0].mac 	sentDownPk:count 	13175
attr interpolationmode  none
attr source  packetSentToLower
attr title  "packets sent to lower layer, count"
scalar SimpleRREQ.host[28].wlan[0].mac 	sentDownPk:sum(packetBytes) 	632400
attr interpolationmode  none
attr source  packetSentToLower
attr title  "packets sent to lower layer, sum(packetBytes)"
statistic SimpleRREQ.host[28].wlan[0].radio 	symbolErrorRate:histogram
field count 94739
field mean 0.53328618625909
field stddev 0.49889343247417
field sum 50523
field sqrsum 50523
field min 0
field max 1
attr source  symbolErrorRate
attr title  "Symbol error rate, histogram"
bin	-INF	0
bin	-1	0
bin	0	44216
bin	1	50523
bin	2	0
statistic SimpleRREQ.host[28].wlan[0].radio 	bitErrorRate:histogram
field count 94739
field mean 0.53328618625909
field stddev 0.49889343247417
field sum 50523
field sqrsum 50523
field min 0
field max 1
attr source  bitErrorRate
attr title  "Bit error rate, histogram"
bin	-INF	0
bin	-1	0
bin	0	44216
bin	1	50523
bin	2	0
statistic SimpleRREQ.host[28].wlan[0].radio 	packetErrorRate:histogram
field count 94739
field mean 0.53328618625909
field stddev 0.49889343247417
field sum 50523
field sqrsum 50523
field min 0
field max 1
attr source  packetErrorRate
attr title  "Packet error rate, histogram"
bin	-INF	0
bin	-1	0
bin	0	44216
bin	1	50523
bin	2	0
statistic SimpleRREQ.host[28].wlan[0].radio 	minSNIR:histogram
field count 94739
field mean nan
field stddev nan
field sum nan
field sqrsum nan
field min nan
field max nan
attr source  minSNIR
attr title  "Min SNIR, histogram"
bin	-INF	94739
bin	nan	0
bin	nan	0
bin	nan	0
bin	nan	0
bin	nan	0
bin	nan	0
bin	nan	0
bin	nan	0
bin	nan	0
bin	nan	0
bin	nan	0
bin	nan	0
bin	nan	0
bin	nan	0
bin	nan	0
bin	nan	0
bin	nan	0
bin	nan	0
bin	nan	0
bin	nan	0
bin	nan	0
bin	nan	0
bin	nan	0
bin	nan	0
bin	nan	0
bin	nan	0
bin	nan	0
bin	nan	0
bin	nan	0
bin	nan	0
bin	nan	0
scalar SimpleRREQ.host[28].wlan[0].radio 	transmissionState:count 	26350
attr interpolationmode  sample-hold
attr source  transmissionStateChanged
attr title  "Radio transmission state, count"
scalar SimpleRREQ.host[28].wlan[0].radio 	receptionState:count 	189482
attr interpolationmode  sample-hold
attr source  receptionStateChanged
attr title  "Radio reception state, count"
scalar SimpleRREQ.host[28].wlan[0].radio 	radioMode:count 	2
attr interpolationmode  sample-hold
attr source  radioModeChanged
attr title  "Radio mode, count"
scalar SimpleRREQ.host[28].pingApp[0] 	"Pings sent" 	1199
scalar SimpleRREQ.host[28].pingApp[0] 	"ping loss rate (%)" 	100
scalar SimpleRREQ.host[28].pingApp[0] 	"ping out-of-order rate (%)" 	0
scalar SimpleRREQ.host[28].pingApp[0] 	numOutOfOrderArrivals:last 	nan
attr interpolationmode  none
attr title  "ping out-of-order arrivals, last"
scalar SimpleRREQ.host[28].pingApp[0] 	pingRxSeq:count 	0
attr interpolationmode  none
attr title  "ping rx seq, count"
scalar SimpleRREQ.host[28].pingApp[0] 	pingTxSeq:count 	1199
attr interpolationmode  none
attr title  "ping tx seq, count"
scalar SimpleRREQ.host[28].pingApp[0] 	numLost:last 	nan
attr interpolationmode  none
attr title  "pings lost, last"
statistic SimpleRREQ.host[28].pingApp[0] 	rtt:histogram
field count 0
field mean nan
field stddev nan
field sum 0
field sqrsum 0
field min nan
field max nan
attr interpolationmode  none
attr title  "ping round-trip time, histogram"
attr unit  s
bin	-INF	0
bin	-0.5	0
bin	-0.46666666666667	0
bin	-0.43333333333333	0
bin	-0.4	0
bin	-0.36666666666667	0
bin	-0.33333333333333	0
bin	-0.3	0
bin	-0.26666666666667	0
bin	-0.23333333333333	0
bin	-0.2	0
bin	-0.16666666666667	0
bin	-0.13333333333333	0
bin	-0.1	0
bin	-0.066666666666667	0
bin	-0.033333333333333	0
bin	0	0
bin	0.033333333333333	0
bin	0.066666666666667	0
bin	0.1	0
bin	0.13333333333333	0
bin	0.16666666666667	0
bin	0.2	0
bin	0.23333333333333	0
bin	0.26666666666667	0
bin	0.3	0
bin	0.33333333333333	0
bin	0.36666666666667	0
bin	0.4	0
bin	0.43333333333333	0
bin	0.46666666666667	0
bin	0.5	0
scalar SimpleRREQ.host[28].epf 	dataFwd:count 	219
attr interpolationmode  none
attr source  dataFwd
attr title  "Forward Data message, count"
scalar SimpleRREQ.host[28].epf 	dataDest:count 	469
attr interpolationmode  none
attr source  dataDest
attr title  "Received Data message on Destination, count"
scalar SimpleRREQ.host[28].epf 	dataRec:count 	12113
attr interpolationmode  none
attr source  dataRec
attr title  "Received Data message, count"
scalar SimpleRREQ.host[28].epf 	dataSent:count 	355
attr interpolationmode  none
attr source  dataSent
attr title  "Sent Data message, count"
scalar SimpleRREQ.host[28].epf 	destResp:count 	366
attr interpolationmode  none
attr source  destResp
attr title  "Response from destination, count"
scalar SimpleRREQ.host[28].epf 	destEnq:count 	366
attr interpolationmode  none
attr source  destEnq
attr title  "Enquire to Destination, count"
scalar SimpleRREQ.host[28].epf 	respNOkRec:count 	2071
attr interpolationmode  none
attr source  respNOkRec
attr title  "Received Not Ok Response message, count"
scalar SimpleRREQ.host[28].epf 	respNOkSent:count 	5208
attr interpolationmode  none
attr source  respNOkSent
attr title  "Sent Not Ok Response message, count"
scalar SimpleRREQ.host[28].epf 	respOkRec:count 	355
attr interpolationmode  none
attr source  respOkRec
attr title  "Received Ok Response message, count"
scalar SimpleRREQ.host[28].epf 	respOkSent:count 	1742
attr interpolationmode  none
attr source  respOkSent
attr title  "Sent Ok Response message, count"
scalar SimpleRREQ.host[28].epf 	respRec:count 	70269
attr interpolationmode  none
attr source  respRec
attr title  "Received Response message, count"
scalar SimpleRREQ.host[28].epf 	respSent:count 	0
attr interpolationmode  none
attr source  respSent
attr title  "Sent Response message, count"
scalar SimpleRREQ.host[28].epf 	enquireRec:count 	11398
attr interpolationmode  none
attr source  enquireRec
attr title  "Received Enquire message, count"
scalar SimpleRREQ.host[28].epf 	enquireSent:count 	367
attr interpolationmode  none
attr source  enquireSent
attr title  "Sent Enquire message, count"
scalar SimpleRREQ.host[28].epf 	rrep2Rec:count 	0
attr interpolationmode  none
attr source  rrep2Rec
attr title  "Received type 2 RREP, count"
scalar SimpleRREQ.host[28].epf 	rrep1Rec:count 	0
attr interpolationmode  none
attr source  rrep1Rec
attr title  "Received type 1 RREP, count"
scalar SimpleRREQ.host[28].epf 	rrepRec:count 	0
attr interpolationmode  none
attr source  rrepRec
attr title  "Received RREP, count"
scalar SimpleRREQ.host[28].epf 	rreq1Rec:count 	0
attr interpolationmode  none
attr source  rreq1Rec
attr title  "Received type 1 RREQ, count"
scalar SimpleRREQ.host[28].epf 	rreqRec:count 	0
attr interpolationmode  none
attr source  rreqRec
attr title  "Received RREQ, count"
scalar SimpleRREQ.host[28].epf 	rrepSent:count 	0
attr interpolationmode  none
attr source  rrepSent
attr title  "Sent RREP, count"
scalar SimpleRREQ.host[28].epf 	rreqSent:count 	0
attr interpolationmode  none
attr source  rreqSent
attr title  "Sent RREQ, count"
scalar SimpleRREQ.host[29].networkLayer.arp 	sentReply:count 	0
attr title  "ARP replies sent, count"
scalar SimpleRREQ.host[29].networkLayer.arp 	sentReq:count 	0
attr title  "ARP request sent, count"
scalar SimpleRREQ.host[29].networkLayer.arp 	failedARPResolution:count 	0
attr title  "ARP failed resolutions, count"
scalar SimpleRREQ.host[29].networkLayer.arp 	completedARPResolution:count 	0
attr title  "ARP completed resolutions, count"
scalar SimpleRREQ.host[29].networkLayer.arp 	initiatedARPResolution:count 	0
attr title  "ARP initiated resolutions, count"
scalar SimpleRREQ.host[29].lo0.lo 	droppedPkBitError:count 	0
attr interpolationmode  none
attr source  dropPkBitError
attr title  "packets dropped/bit error, count"
scalar SimpleRREQ.host[29].lo0.lo 	droppedPkBitError:sum(packetBytes) 	0
attr interpolationmode  none
attr source  dropPkBitError
attr title  "packets dropped/bit error, sum(packetBytes)"
scalar SimpleRREQ.host[29].lo0.lo 	rcvdPkFromHL:count 	0
attr interpolationmode  none
attr source  packetReceivedFromUpper
attr title  "packets received from higher layer, count"
scalar SimpleRREQ.host[29].lo0.lo 	rcvdPkFromHL:sum(packetBytes) 	0
attr interpolationmode  none
attr source  packetReceivedFromUpper
attr title  "packets received from higher layer, sum(packetBytes)"
scalar SimpleRREQ.host[29].lo0.lo 	passedUpPk:count 	0
attr interpolationmode  none
attr source  packetSentToUpper
attr title  "packets passed to higher layer, count"
scalar SimpleRREQ.host[29].lo0.lo 	passedUpPk:sum(packetBytes) 	0
attr interpolationmode  none
attr source  packetSentToUpper
attr title  "packets passed to higher layer, sum(packetBytes)"
scalar SimpleRREQ.host[29].wlan[0].queue 	queueLength:max 	3
attr interpolationmode  sample-hold
attr title  "queue length, max"
scalar SimpleRREQ.host[29].wlan[0].queue 	queueLength:timeavg 	0.00012976650153667
attr interpolationmode  sample-hold
attr title  "queue length, timeavg"
statistic SimpleRREQ.host[29].wlan[0].queue 	queueingTime:histogram
field count 12353
field mean 1.2605828692949e-005
field stddev 5.1660090896789e-005
field sum 0.155719801844
field sqrsum 3.4927562320714e-005
field min 0
field max 0.000575633156
attr interpolationmode  none
attr title  "queueing time, histogram"
bin	-INF	0
bin	-0.000287816578	0
bin	-0.00024944103426667	0
bin	-0.00021106549053333	0
bin	-0.0001726899468	0
bin	-0.00013431440306667	0
bin	-9.5938859333333e-005	0
bin	-5.75633156e-005	0
bin	-1.9187771866667e-005	11607
bin	1.9187771866667e-005	0
bin	5.75633156e-005	0
bin	9.5938859333333e-005	0
bin	0.00013431440306667	0
bin	0.0001726899468	683
bin	0.00021106549053333	0
bin	0.00024944103426667	0
bin	0.000287816578	0
bin	0.00032619212173333	0
bin	0.00036456766546667	60
bin	0.0004029432092	0
bin	0.00044131875293333	0
bin	0.00047969429666667	0
bin	0.0005180698404	0
bin	0.00055644538413333	3
bin	0.00059482092786667	0
bin	0.0006331964716	0
bin	0.00067157201533333	0
bin	0.00070994755906667	0
bin	0.0007483231028	0
bin	0.00078669864653333	0
bin	0.00082507419026667	0
bin	0.000863449734	0
scalar SimpleRREQ.host[29].wlan[0].queue 	dropPk:count 	0
attr interpolationmode  none
attr source  dropPkByQueue
attr title  "dropped packets, count"
scalar SimpleRREQ.host[29].wlan[0].queue 	dropPk:sum(packetBytes) 	0
attr interpolationmode  none
attr source  dropPkByQueue
attr title  "dropped packets, sum(packetBytes)"
scalar SimpleRREQ.host[29].wlan[0].queue 	rcvdPk:count 	12353
attr interpolationmode  none
attr title  "received packets, count"
scalar SimpleRREQ.host[29].wlan[0].queue 	rcvdPk:sum(packetBytes) 	345884
attr interpolationmode  none
attr title  "received packets, sum(packetBytes)"
scalar SimpleRREQ.host[29].wlan[0].mac 	droppedPkNotForUs:count 	0
attr interpolationmode  none
attr source  dropPkNotForUs
attr title  "packets dropped/not for us, count"
scalar SimpleRREQ.host[29].wlan[0].mac 	droppedPkNotForUs:sum(packetBytes) 	0
attr interpolationmode  none
attr source  dropPkNotForUs
attr title  "packets dropped/not for us, sum(packetBytes)"
scalar SimpleRREQ.host[29].wlan[0].mac 	rcvdPkFromHL:count 	12353
attr interpolationmode  none
attr source  packetReceivedFromUpper
attr title  "packets received from higher layer, count"
scalar SimpleRREQ.host[29].wlan[0].mac 	rcvdPkFromHL:sum(packetBytes) 	345884
attr interpolationmode  none
attr source  packetReceivedFromUpper
attr title  "packets received from higher layer, sum(packetBytes)"
scalar SimpleRREQ.host[29].wlan[0].mac 	passedUpPk:count 	92441
attr interpolationmode  none
attr source  packetSentToUpper
attr title  "packets passed to higher layer, count"
scalar SimpleRREQ.host[29].wlan[0].mac 	passedUpPk:sum(packetBytes) 	2588348
attr interpolationmode  none
attr source  packetSentToUpper
attr title  "packets passed to higher layer, sum(packetBytes)"
scalar SimpleRREQ.host[29].wlan[0].mac 	rcvdPkFromLL:count 	92441
attr interpolationmode  none
attr source  packetReceivedFromLower
attr title  "packets received from lower layer, count"
scalar SimpleRREQ.host[29].wlan[0].mac 	rcvdPkFromLL:sum(packetBytes) 	4437168
attr interpolationmode  none
attr source  packetReceivedFromLower
attr title  "packets received from lower layer, sum(packetBytes)"
scalar SimpleRREQ.host[29].wlan[0].mac 	sentDownPk:count 	12353
attr interpolationmode  none
attr source  packetSentToLower
attr title  "packets sent to lower layer, count"
scalar SimpleRREQ.host[29].wlan[0].mac 	sentDownPk:sum(packetBytes) 	592944
attr interpolationmode  none
attr source  packetSentToLower
attr title  "packets sent to lower layer, sum(packetBytes)"
statistic SimpleRREQ.host[29].wlan[0].radio 	symbolErrorRate:histogram
field count 92441
field mean 0.52976493114527
field stddev 0.49911596222401
field sum 48972
field sqrsum 48972
field min 0
field max 1
attr source  symbolErrorRate
attr title  "Symbol error rate, histogram"
bin	-INF	0
bin	-1	0
bin	0	43469
bin	1	48972
bin	2	0
statistic SimpleRREQ.host[29].wlan[0].radio 	bitErrorRate:histogram
field count 92441
field mean 0.52976493114527
field stddev 0.49911596222401
field sum 48972
field sqrsum 48972
field min 0
field max 1
attr source  bitErrorRate
attr title  "Bit error rate, histogram"
bin	-INF	0
bin	-1	0
bin	0	43469
bin	1	48972
bin	2	0
statistic SimpleRREQ.host[29].wlan[0].radio 	packetErrorRate:histogram
field count 92441
field mean 0.52976493114527
field stddev 0.49911596222401
field sum 48972
field sqrsum 48972
field min 0
field max 1
attr source  packetErrorRate
attr title  "Packet error rate, histogram"
bin	-INF	0
bin	-1	0
bin	0	43469
bin	1	48972
bin	2	0
statistic SimpleRREQ.host[29].wlan[0].radio 	minSNIR:histogram
field count 92441
field mean nan
field stddev nan
field sum nan
field sqrsum nan
field min nan
field max nan
attr source  minSNIR
attr title  "Min SNIR, histogram"
bin	-INF	92441
bin	nan	0
bin	nan	0
bin	nan	0
bin	nan	0
bin	nan	0
bin	nan	0
bin	nan	0
bin	nan	0
bin	nan	0
bin	nan	0
bin	nan	0
bin	nan	0
bin	nan	0
bin	nan	0
bin	nan	0
bin	nan	0
bin	nan	0
bin	nan	0
bin	nan	0
bin	nan	0
bin	nan	0
bin	nan	0
bin	nan	0
bin	nan	0
bin	nan	0
bin	nan	0
bin	nan	0
bin	nan	0
bin	nan	0
bin	nan	0
bin	nan	0
scalar SimpleRREQ.host[29].wlan[0].radio 	transmissionState:count 	24706
attr interpolationmode  sample-hold
attr source  transmissionStateChanged
attr title  "Radio transmission state, count"
scalar SimpleRREQ.host[29].wlan[0].radio 	receptionState:count 	184885
attr interpolationmode  sample-hold
attr source  receptionStateChanged
attr title  "Radio reception state, count"
scalar SimpleRREQ.host[29].wlan[0].radio 	radioMode:count 	2
attr interpolationmode  sample-hold
attr source  radioModeChanged
attr title  "Radio mode, count"
scalar SimpleRREQ.host[29].pingApp[0] 	"Pings sent" 	1198
scalar SimpleRREQ.host[29].pingApp[0] 	"ping loss rate (%)" 	100
scalar SimpleRREQ.host[29].pingApp[0] 	"ping out-of-order rate (%)" 	0
scalar SimpleRREQ.host[29].pingApp[0] 	numOutOfOrderArrivals:last 	nan
attr interpolationmode  none
attr title  "ping out-of-order arrivals, last"
scalar SimpleRREQ.host[29].pingApp[0] 	pingRxSeq:count 	0
attr interpolationmode  none
attr title  "ping rx seq, count"
scalar SimpleRREQ.host[29].pingApp[0] 	pingTxSeq:count 	1198
attr interpolationmode  none
attr title  "ping tx seq, count"
scalar SimpleRREQ.host[29].pingApp[0] 	numLost:last 	nan
attr interpolationmode  none
attr title  "pings lost, last"
statistic SimpleRREQ.host[29].pingApp[0] 	rtt:histogram
field count 0
field mean nan
field stddev nan
field sum 0
field sqrsum 0
field min nan
field max nan
attr interpolationmode  none
attr title  "ping round-trip time, histogram"
attr unit  s
bin	-INF	0
bin	-0.5	0
bin	-0.46666666666667	0
bin	-0.43333333333333	0
bin	-0.4	0
bin	-0.36666666666667	0
bin	-0.33333333333333	0
bin	-0.3	0
bin	-0.26666666666667	0
bin	-0.23333333333333	0
bin	-0.2	0
bin	-0.16666666666667	0
bin	-0.13333333333333	0
bin	-0.1	0
bin	-0.066666666666667	0
bin	-0.033333333333333	0
bin	0	0
bin	0.033333333333333	0
bin	0.066666666666667	0
bin	0.1	0
bin	0.13333333333333	0
bin	0.16666666666667	0
bin	0.2	0
bin	0.23333333333333	0
bin	0.26666666666667	0
bin	0.3	0
bin	0.33333333333333	0
bin	0.36666666666667	0
bin	0.4	0
bin	0.43333333333333	0
bin	0.46666666666667	0
bin	0.5	0
scalar SimpleRREQ.host[29].epf 	dataFwd:count 	142
attr interpolationmode  none
attr source  dataFwd
attr title  "Forward Data message, count"
scalar SimpleRREQ.host[29].epf 	dataDest:count 	354
attr interpolationmode  none
attr source  dataDest
attr title  "Received Data message on Destination, count"
scalar SimpleRREQ.host[29].epf 	dataRec:count 	11343
attr interpolationmode  none
attr source  dataRec
attr title  "Received Data message, count"
scalar SimpleRREQ.host[29].epf 	dataSent:count 	279
attr interpolationmode  none
attr source  dataSent
attr title  "Sent Data message, count"
scalar SimpleRREQ.host[29].epf 	destResp:count 	355
attr interpolationmode  none
attr source  destResp
attr title  "Response from destination, count"
scalar SimpleRREQ.host[29].epf 	destEnq:count 	355
attr interpolationmode  none
attr source  destEnq
attr title  "Enquire to Destination, count"
scalar SimpleRREQ.host[29].epf 	respNOkRec:count 	1313
attr interpolationmode  none
attr source  respNOkRec
attr title  "Received Not Ok Response message, count"
scalar SimpleRREQ.host[29].epf 	respNOkSent:count 	5398
attr interpolationmode  none
attr source  respNOkSent
attr title  "Sent Not Ok Response message, count"
scalar SimpleRREQ.host[29].epf 	respOkRec:count 	279
attr interpolationmode  none
attr source  respOkRec
attr title  "Received Ok Response message, count"
scalar SimpleRREQ.host[29].epf 	respOkSent:count 	1181
attr interpolationmode  none
attr source  respOkSent
attr title  "Sent Ok Response message, count"
scalar SimpleRREQ.host[29].epf 	respRec:count 	69320
attr interpolationmode  none
attr source  respRec
attr title  "Received Response message, count"
scalar SimpleRREQ.host[29].epf 	respSent:count 	0
attr interpolationmode  none
attr source  respSent
attr title  "Sent Response message, count"
scalar SimpleRREQ.host[29].epf 	enquireRec:count 	10819
attr interpolationmode  none
attr source  enquireRec
attr title  "Received Enquire message, count"
scalar SimpleRREQ.host[29].epf 	enquireSent:count 	202
attr interpolationmode  none
attr source  enquireSent
attr title  "Sent Enquire message, count"
scalar SimpleRREQ.host[29].epf 	rrep2Rec:count 	0
attr interpolationmode  none
attr source  rrep2Rec
attr title  "Received type 2 RREP, count"
scalar SimpleRREQ.host[29].epf 	rrep1Rec:count 	0
attr interpolationmode  none
attr source  rrep1Rec
attr title  "Received type 1 RREP, count"
scalar SimpleRREQ.host[29].epf 	rrepRec:count 	0
attr interpolationmode  none
attr source  rrepRec
attr title  "Received RREP, count"
scalar SimpleRREQ.host[29].epf 	rreq1Rec:count 	0
attr interpolationmode  none
attr source  rreq1Rec
attr title  "Received type 1 RREQ, count"
scalar SimpleRREQ.host[29].epf 	rreqRec:count 	0
attr interpolationmode  none
attr source  rreqRec
attr title  "Received RREQ, count"
scalar SimpleRREQ.host[29].epf 	rrepSent:count 	0
attr interpolationmode  none
attr source  rrepSent
attr title  "Sent RREP, count"
scalar SimpleRREQ.host[29].epf 	rreqSent:count 	0
attr interpolationmode  none
attr source  rreqSent
attr title  "Sent RREQ, count"
