version 2
run SimpleRREQ-6-20161207-15:12:27-10852
attr configname SimpleRREQ
attr datetime 20161207-15:12:27
attr experiment SimpleRREQ
attr inifile omnetpp.ini
attr iterationvars "$0=\"./movements/RandomWaypoint—0-100-0.5.movements\""
attr iterationvars2 "$0=\"./movements/RandomWaypoint—0-100-0.5.movements\", $repetition=6"
attr measurement "$0=\"./movements/RandomWaypoint—0-100-0.5.movements\""
attr network SimpleRREQ
attr processid 10852
attr repetition 6
attr replication #6
attr resultdir results
attr runnumber 6
attr seedset 6
param **.hasStatus true
param **.host[*].mobility.nodeId -1
param **.host[*].mobility.traceFile "${\"./movements/RandomWaypoint—0-100-0.5.movements\"}"
param **.host[*].mobilityType "\"BonnMotionMobility\""
param **.host[*].numPingApps 1
param **.host[*].pingApp[0].destAddr "\"host[0](ipv4)\""
param **.host[*].pingApp[0].printPing true
param **.host[*].pingApp[0].startTime uniform(1s,5s)
param **.mobility.constraintAreaMaxX 600m
param **.mobility.constraintAreaMaxY 600m
param **.mobility.constraintAreaMaxZ 0m
param **.mobility.constraintAreaMinX 0m
param **.mobility.constraintAreaMinY 0m
param **.mobility.constraintAreaMinZ 0m
param **.trickle.Imax 20s
param **.trickle.Imin 10s
param **.trickle.MaxMessages 5
param **.wlan[*].bitrate 2Mbps
param **.wlan[*].mac.address "\"auto\""
param **.wlan[*].mac.cwMinData 7
param **.wlan[*].mac.cwMinMulticast 31
param **.wlan[*].mac.headerLength 20B
param **.wlan[*].mac.maxQueueSize 14
param **.wlan[*].mac.retryLimit 7
param **.wlan[*].mac.rtsThresholdBytes 3000B
param **.wlan[*].mgmt.frameCapacity 10
param **.wlan[*].radio.receiver.ignoreInterference true
param **.wlan[*].radio.transmitter.communicationRange 250m
param **.wlan[*].radio.transmitter.detectionRange 0m
param **.wlan[*].radio.transmitter.headerBitLength 0b
param **.wlan[*].radio.transmitter.interferenceRange 0m
param **.wlan[*].radioType "\"IdealRadio\""
param **.wlan[*].typename "\"IdealWirelessNic\""
param *.host0.numPingApps 1
param *.host0.pingApp[0].printPing true
param *.host0.pingApp[0].startTime uniform(1s,5s)
param *.numHosts 3

scalar SimpleRREQ 	hackForCreateResultsFolder 	0
scalar SimpleRREQ.radioMedium.propagation 	"Arrival computation count" 	10079240
scalar SimpleRREQ.radioMedium 	"transmission count" 	347560
scalar SimpleRREQ.radioMedium 	"radio frame send count" 	10079240
scalar SimpleRREQ.radioMedium 	"reception computation count" 	10078370
scalar SimpleRREQ.radioMedium 	"interference computation count" 	18407263
scalar SimpleRREQ.radioMedium 	"reception decision computation count" 	2326773
scalar SimpleRREQ.radioMedium 	"listening decision computation count" 	6002120
scalar SimpleRREQ.radioMedium 	"reception cache hit" 	91.649837013752
attr unit  %
scalar SimpleRREQ.radioMedium 	"interference cache hit" 	66.666666666667
attr unit  %
scalar SimpleRREQ.radioMedium 	"noise cache hit" 	0
attr unit  %
scalar SimpleRREQ.radioMedium 	"snir cache hit" 	50
attr unit  %
scalar SimpleRREQ.radioMedium 	"reception decision cache hit" 	50
attr unit  %
scalar SimpleRREQ.radioMedium 	"reception result cache hit" 	0
attr unit  %
scalar SimpleRREQ.host[0].networkLayer.arp 	sentReply:count 	0
attr title  "ARP replies sent, count"
scalar SimpleRREQ.host[0].networkLayer.arp 	sentReq:count 	0
attr title  "ARP request sent, count"
scalar SimpleRREQ.host[0].networkLayer.arp 	failedARPResolution:count 	0
attr title  "ARP failed resolutions, count"
scalar SimpleRREQ.host[0].networkLayer.arp 	completedARPResolution:count 	0
attr title  "ARP completed resolutions, count"
scalar SimpleRREQ.host[0].networkLayer.arp 	initiatedARPResolution:count 	0
attr title  "ARP initiated resolutions, count"
scalar SimpleRREQ.host[0].lo0.lo 	droppedPkBitError:count 	0
attr interpolationmode  none
attr source  dropPkBitError
attr title  "packets dropped/bit error, count"
scalar SimpleRREQ.host[0].lo0.lo 	droppedPkBitError:sum(packetBytes) 	0
attr interpolationmode  none
attr source  dropPkBitError
attr title  "packets dropped/bit error, sum(packetBytes)"
scalar SimpleRREQ.host[0].lo0.lo 	rcvdPkFromHL:count 	2394
attr interpolationmode  none
attr source  packetReceivedFromUpper
attr title  "packets received from higher layer, count"
scalar SimpleRREQ.host[0].lo0.lo 	rcvdPkFromHL:sum(packetBytes) 	201096
attr interpolationmode  none
attr source  packetReceivedFromUpper
attr title  "packets received from higher layer, sum(packetBytes)"
scalar SimpleRREQ.host[0].lo0.lo 	passedUpPk:count 	2394
attr interpolationmode  none
attr source  packetSentToUpper
attr title  "packets passed to higher layer, count"
scalar SimpleRREQ.host[0].lo0.lo 	passedUpPk:sum(packetBytes) 	201096
attr interpolationmode  none
attr source  packetSentToUpper
attr title  "packets passed to higher layer, sum(packetBytes)"
scalar SimpleRREQ.host[0].wlan[0].queue 	queueLength:max 	4
attr interpolationmode  sample-hold
attr title  "queue length, max"
scalar SimpleRREQ.host[0].wlan[0].queue 	queueLength:timeavg 	7.7193836604167e-005
attr interpolationmode  sample-hold
attr title  "queue length, timeavg"
statistic SimpleRREQ.host[0].wlan[0].queue 	queueingTime:histogram
field count 9469
field mean 9.7827229828915e-006
field stddev 4.6232176253198e-005
field sum 0.092632603925
field sqrsum 2.1143236002021e-005
field min 0
field max 0.00076756572
attr interpolationmode  none
attr title  "queueing time, histogram"
bin	-INF	0
bin	-0.000191873418	0
bin	-0.0001662902956	0
bin	-0.0001407071732	0
bin	-0.0001151240508	0
bin	-8.95409284e-005	0
bin	-6.3957806e-005	0
bin	-3.83746836e-005	0
bin	-1.27915612e-005	9027
bin	1.27915612e-005	0
bin	3.83746836e-005	0
bin	6.3957806e-005	0
bin	8.95409284e-005	0
bin	0.0001151240508	0
bin	0.0001407071732	0
bin	0.0001662902956	274
bin	0.000191873418	131
bin	0.0002174565404	0
bin	0.0002430396628	0
bin	0.0002686227852	0
bin	0.0002942059076	0
bin	0.00031978903	0
bin	0.0003453721524	0
bin	0.0003709552748	34
bin	0.0003965383972	0
bin	0.0004221215196	0
bin	0.000447704642	0
bin	0.0004732877644	0
bin	0.0004988708868	0
bin	0.0005244540092	0
bin	0.0005500371316	1
bin	0.000575620254	2
scalar SimpleRREQ.host[0].wlan[0].queue 	dropPk:count 	0
attr interpolationmode  none
attr source  dropPkByQueue
attr title  "dropped packets, count"
scalar SimpleRREQ.host[0].wlan[0].queue 	dropPk:sum(packetBytes) 	0
attr interpolationmode  none
attr source  dropPkByQueue
attr title  "dropped packets, sum(packetBytes)"
scalar SimpleRREQ.host[0].wlan[0].queue 	rcvdPk:count 	9469
attr interpolationmode  none
attr title  "received packets, count"
scalar SimpleRREQ.host[0].wlan[0].queue 	rcvdPk:sum(packetBytes) 	265132
attr interpolationmode  none
attr title  "received packets, sum(packetBytes)"
scalar SimpleRREQ.host[0].wlan[0].mac 	droppedPkNotForUs:count 	0
attr interpolationmode  none
attr source  dropPkNotForUs
attr title  "packets dropped/not for us, count"
scalar SimpleRREQ.host[0].wlan[0].mac 	droppedPkNotForUs:sum(packetBytes) 	0
attr interpolationmode  none
attr source  dropPkNotForUs
attr title  "packets dropped/not for us, sum(packetBytes)"
scalar SimpleRREQ.host[0].wlan[0].mac 	rcvdPkFromHL:count 	9469
attr interpolationmode  none
attr source  packetReceivedFromUpper
attr title  "packets received from higher layer, count"
scalar SimpleRREQ.host[0].wlan[0].mac 	rcvdPkFromHL:sum(packetBytes) 	265132
attr interpolationmode  none
attr source  packetReceivedFromUpper
attr title  "packets received from higher layer, sum(packetBytes)"
scalar SimpleRREQ.host[0].wlan[0].mac 	passedUpPk:count 	62110
attr interpolationmode  none
attr source  packetSentToUpper
attr title  "packets passed to higher layer, count"
scalar SimpleRREQ.host[0].wlan[0].mac 	passedUpPk:sum(packetBytes) 	1739080
attr interpolationmode  none
attr source  packetSentToUpper
attr title  "packets passed to higher layer, sum(packetBytes)"
scalar SimpleRREQ.host[0].wlan[0].mac 	rcvdPkFromLL:count 	62110
attr interpolationmode  none
attr source  packetReceivedFromLower
attr title  "packets received from lower layer, count"
scalar SimpleRREQ.host[0].wlan[0].mac 	rcvdPkFromLL:sum(packetBytes) 	2981280
attr interpolationmode  none
attr source  packetReceivedFromLower
attr title  "packets received from lower layer, sum(packetBytes)"
scalar SimpleRREQ.host[0].wlan[0].mac 	sentDownPk:count 	9469
attr interpolationmode  none
attr source  packetSentToLower
attr title  "packets sent to lower layer, count"
scalar SimpleRREQ.host[0].wlan[0].mac 	sentDownPk:sum(packetBytes) 	454512
attr interpolationmode  none
attr source  packetSentToLower
attr title  "packets sent to lower layer, sum(packetBytes)"
statistic SimpleRREQ.host[0].wlan[0].radio 	symbolErrorRate:histogram
field count 62110
field mean 0.44822089840605
field stddev 0.49731570119231
field sum 27839
field sqrsum 27839
field min 0
field max 1
attr source  symbolErrorRate
attr title  "Symbol error rate, histogram"
bin	-INF	0
bin	-1	0
bin	0	34271
bin	1	27839
bin	2	0
statistic SimpleRREQ.host[0].wlan[0].radio 	bitErrorRate:histogram
field count 62110
field mean 0.44822089840605
field stddev 0.49731570119231
field sum 27839
field sqrsum 27839
field min 0
field max 1
attr source  bitErrorRate
attr title  "Bit error rate, histogram"
bin	-INF	0
bin	-1	0
bin	0	34271
bin	1	27839
bin	2	0
statistic SimpleRREQ.host[0].wlan[0].radio 	packetErrorRate:histogram
field count 62110
field mean 0.44822089840605
field stddev 0.49731570119231
field sum 27839
field sqrsum 27839
field min 0
field max 1
attr source  packetErrorRate
attr title  "Packet error rate, histogram"
bin	-INF	0
bin	-1	0
bin	0	34271
bin	1	27839
bin	2	0
statistic SimpleRREQ.host[0].wlan[0].radio 	minSNIR:histogram
field count 62110
field mean nan
field stddev nan
field sum nan
field sqrsum nan
field min nan
field max nan
attr source  minSNIR
attr title  "Min SNIR, histogram"
bin	-INF	62110
bin	nan	0
bin	nan	0
bin	nan	0
bin	nan	0
bin	nan	0
bin	nan	0
bin	nan	0
bin	nan	0
bin	nan	0
bin	nan	0
bin	nan	0
bin	nan	0
bin	nan	0
bin	nan	0
bin	nan	0
bin	nan	0
bin	nan	0
bin	nan	0
bin	nan	0
bin	nan	0
bin	nan	0
bin	nan	0
bin	nan	0
bin	nan	0
bin	nan	0
bin	nan	0
bin	nan	0
bin	nan	0
bin	nan	0
bin	nan	0
bin	nan	0
scalar SimpleRREQ.host[0].wlan[0].radio 	transmissionState:count 	18938
attr interpolationmode  sample-hold
attr source  transmissionStateChanged
attr title  "Radio transmission state, count"
scalar SimpleRREQ.host[0].wlan[0].radio 	receptionState:count 	124222
attr interpolationmode  sample-hold
attr source  receptionStateChanged
attr title  "Radio reception state, count"
scalar SimpleRREQ.host[0].wlan[0].radio 	radioMode:count 	2
attr interpolationmode  sample-hold
attr source  radioModeChanged
attr title  "Radio mode, count"
scalar SimpleRREQ.host[0].pingApp[0] 	"Pings sent" 	1197
scalar SimpleRREQ.host[0].pingApp[0] 	"ping loss rate (%)" 	0
scalar SimpleRREQ.host[0].pingApp[0] 	"ping out-of-order rate (%)" 	0
scalar SimpleRREQ.host[0].pingApp[0] 	numOutOfOrderArrivals:last 	nan
attr interpolationmode  none
attr title  "ping out-of-order arrivals, last"
scalar SimpleRREQ.host[0].pingApp[0] 	pingRxSeq:count 	1197
attr interpolationmode  none
attr title  "ping rx seq, count"
scalar SimpleRREQ.host[0].pingApp[0] 	pingTxSeq:count 	1197
attr interpolationmode  none
attr title  "ping tx seq, count"
scalar SimpleRREQ.host[0].pingApp[0] 	numLost:last 	nan
attr interpolationmode  none
attr title  "pings lost, last"
statistic SimpleRREQ.host[0].pingApp[0] 	rtt:histogram
field count 1197
field mean 0.21960735171261
field stddev 0.036809591587846
field sum 262.87
field sqrsum 59.3487
field min 0.14
field max 0.3
attr interpolationmode  none
attr title  "ping round-trip time, histogram"
attr unit  s
bin	-INF	0
bin	0.075	0
bin	0.085	0
bin	0.095	0
bin	0.105	0
bin	0.115	0
bin	0.125	0
bin	0.135	21
bin	0.145	31
bin	0.155	48
bin	0.165	54
bin	0.175	76
bin	0.185	84
bin	0.195	92
bin	0.205	116
bin	0.215	146
bin	0.225	115
bin	0.235	104
bin	0.245	88
bin	0.255	90
bin	0.265	48
bin	0.275	38
bin	0.285	31
bin	0.295	15
bin	0.305	0
bin	0.315	0
bin	0.325	0
bin	0.335	0
bin	0.345	0
bin	0.355	0
bin	0.365	0
bin	0.375	0
scalar SimpleRREQ.host[0].epf 	dataFwd:count 	285
attr interpolationmode  none
attr source  dataFwd
attr title  "Forward Data message, count"
scalar SimpleRREQ.host[0].epf 	dataDest:count 	274
attr interpolationmode  none
attr source  dataDest
attr title  "Received Data message on Destination, count"
scalar SimpleRREQ.host[0].epf 	dataRec:count 	6983
attr interpolationmode  none
attr source  dataRec
attr title  "Received Data message, count"
scalar SimpleRREQ.host[0].epf 	dataSent:count 	559
attr interpolationmode  none
attr source  dataSent
attr title  "Sent Data message, count"
scalar SimpleRREQ.host[0].epf 	destResp:count 	285
attr interpolationmode  none
attr source  destResp
attr title  "Response from destination, count"
scalar SimpleRREQ.host[0].epf 	destEnq:count 	285
attr interpolationmode  none
attr source  destEnq
attr title  "Enquire to Destination, count"
scalar SimpleRREQ.host[0].epf 	respNOkRec:count 	1914
attr interpolationmode  none
attr source  respNOkRec
attr title  "Received Not Ok Response message, count"
scalar SimpleRREQ.host[0].epf 	respNOkSent:count 	1833
attr interpolationmode  none
attr source  respNOkSent
attr title  "Sent Not Ok Response message, count"
scalar SimpleRREQ.host[0].epf 	respOkRec:count 	559
attr interpolationmode  none
attr source  respOkRec
attr title  "Received Ok Response message, count"
scalar SimpleRREQ.host[0].epf 	respOkSent:count 	1762
attr interpolationmode  none
attr source  respOkSent
attr title  "Sent Ok Response message, count"
scalar SimpleRREQ.host[0].epf 	respRec:count 	46782
attr interpolationmode  none
attr source  respRec
attr title  "Received Response message, count"
scalar SimpleRREQ.host[0].epf 	respSent:count 	0
attr interpolationmode  none
attr source  respSent
attr title  "Sent Response message, count"
scalar SimpleRREQ.host[0].epf 	enquireRec:count 	7546
attr interpolationmode  none
attr source  enquireRec
attr title  "Received Enquire message, count"
scalar SimpleRREQ.host[0].epf 	enquireSent:count 	404
attr interpolationmode  none
attr source  enquireSent
attr title  "Sent Enquire message, count"
scalar SimpleRREQ.host[0].epf 	rrep2Rec:count 	0
attr interpolationmode  none
attr source  rrep2Rec
attr title  "Received type 2 RREP, count"
scalar SimpleRREQ.host[0].epf 	rrep1Rec:count 	0
attr interpolationmode  none
attr source  rrep1Rec
attr title  "Received type 1 RREP, count"
scalar SimpleRREQ.host[0].epf 	rrepRec:count 	0
attr interpolationmode  none
attr source  rrepRec
attr title  "Received RREP, count"
scalar SimpleRREQ.host[0].epf 	rreq1Rec:count 	0
attr interpolationmode  none
attr source  rreq1Rec
attr title  "Received type 1 RREQ, count"
scalar SimpleRREQ.host[0].epf 	rreqRec:count 	0
attr interpolationmode  none
attr source  rreqRec
attr title  "Received RREQ, count"
scalar SimpleRREQ.host[0].epf 	rrepSent:count 	0
attr interpolationmode  none
attr source  rrepSent
attr title  "Sent RREP, count"
scalar SimpleRREQ.host[0].epf 	rreqSent:count 	0
attr interpolationmode  none
attr source  rreqSent
attr title  "Sent RREQ, count"
scalar SimpleRREQ.host[1].networkLayer.arp 	sentReply:count 	0
attr title  "ARP replies sent, count"
scalar SimpleRREQ.host[1].networkLayer.arp 	sentReq:count 	0
attr title  "ARP request sent, count"
scalar SimpleRREQ.host[1].networkLayer.arp 	failedARPResolution:count 	0
attr title  "ARP failed resolutions, count"
scalar SimpleRREQ.host[1].networkLayer.arp 	completedARPResolution:count 	0
attr title  "ARP completed resolutions, count"
scalar SimpleRREQ.host[1].networkLayer.arp 	initiatedARPResolution:count 	0
attr title  "ARP initiated resolutions, count"
scalar SimpleRREQ.host[1].lo0.lo 	droppedPkBitError:count 	0
attr interpolationmode  none
attr source  dropPkBitError
attr title  "packets dropped/bit error, count"
scalar SimpleRREQ.host[1].lo0.lo 	droppedPkBitError:sum(packetBytes) 	0
attr interpolationmode  none
attr source  dropPkBitError
attr title  "packets dropped/bit error, sum(packetBytes)"
scalar SimpleRREQ.host[1].lo0.lo 	rcvdPkFromHL:count 	0
attr interpolationmode  none
attr source  packetReceivedFromUpper
attr title  "packets received from higher layer, count"
scalar SimpleRREQ.host[1].lo0.lo 	rcvdPkFromHL:sum(packetBytes) 	0
attr interpolationmode  none
attr source  packetReceivedFromUpper
attr title  "packets received from higher layer, sum(packetBytes)"
scalar SimpleRREQ.host[1].lo0.lo 	passedUpPk:count 	0
attr interpolationmode  none
attr source  packetSentToUpper
attr title  "packets passed to higher layer, count"
scalar SimpleRREQ.host[1].lo0.lo 	passedUpPk:sum(packetBytes) 	0
attr interpolationmode  none
attr source  packetSentToUpper
attr title  "packets passed to higher layer, sum(packetBytes)"
scalar SimpleRREQ.host[1].wlan[0].queue 	queueLength:max 	3
attr interpolationmode  sample-hold
attr title  "queue length, max"
scalar SimpleRREQ.host[1].wlan[0].queue 	queueLength:timeavg 	0.00012720386165417
attr interpolationmode  sample-hold
attr title  "queue length, timeavg"
statistic SimpleRREQ.host[1].wlan[0].queue 	queueingTime:histogram
field count 12298
field mean 1.2412151080257e-005
field stddev 5.1419215399645e-005
field sum 0.152644633985
field sqrsum 3.4407125712951e-005
field min 0
field max 0.000575744886
attr interpolationmode  none
attr title  "queueing time, histogram"
bin	-INF	0
bin	-0.0001918958675	0
bin	-0.00016630975183333	0
bin	-0.00014072363616667	0
bin	-0.0001151375205	0
bin	-8.9551404833333e-005	0
bin	-6.3965289166667e-005	0
bin	-3.83791735e-005	0
bin	-1.2793057833333e-005	11571
bin	1.2793057833333e-005	0
bin	3.83791735e-005	0
bin	6.3965289166667e-005	0
bin	8.9551404833333e-005	0
bin	0.0001151375205	0
bin	0.00014072363616667	0
bin	0.00016630975183333	494
bin	0.0001918958675	165
bin	0.00021748198316667	0
bin	0.00024306809883333	0
bin	0.0002686542145	0
bin	0.00029424033016667	0
bin	0.00031982644583333	0
bin	0.0003454125615	0
bin	0.00037099867716667	67
bin	0.00039658479283333	0
bin	0.0004221709085	0
bin	0.00044775702416667	0
bin	0.00047334313983333	0
bin	0.0004989292555	0
bin	0.00052451537116667	0
bin	0.00055010148683333	0
bin	0.0005756876025	1
scalar SimpleRREQ.host[1].wlan[0].queue 	dropPk:count 	0
attr interpolationmode  none
attr source  dropPkByQueue
attr title  "dropped packets, count"
scalar SimpleRREQ.host[1].wlan[0].queue 	dropPk:sum(packetBytes) 	0
attr interpolationmode  none
attr source  dropPkByQueue
attr title  "dropped packets, sum(packetBytes)"
scalar SimpleRREQ.host[1].wlan[0].queue 	rcvdPk:count 	12298
attr interpolationmode  none
attr title  "received packets, count"
scalar SimpleRREQ.host[1].wlan[0].queue 	rcvdPk:sum(packetBytes) 	344344
attr interpolationmode  none
attr title  "received packets, sum(packetBytes)"
scalar SimpleRREQ.host[1].wlan[0].mac 	droppedPkNotForUs:count 	0
attr interpolationmode  none
attr source  dropPkNotForUs
attr title  "packets dropped/not for us, count"
scalar SimpleRREQ.host[1].wlan[0].mac 	droppedPkNotForUs:sum(packetBytes) 	0
attr interpolationmode  none
attr source  dropPkNotForUs
attr title  "packets dropped/not for us, sum(packetBytes)"
scalar SimpleRREQ.host[1].wlan[0].mac 	rcvdPkFromHL:count 	12298
attr interpolationmode  none
attr source  packetReceivedFromUpper
attr title  "packets received from higher layer, count"
scalar SimpleRREQ.host[1].wlan[0].mac 	rcvdPkFromHL:sum(packetBytes) 	344344
attr interpolationmode  none
attr source  packetReceivedFromUpper
attr title  "packets received from higher layer, sum(packetBytes)"
scalar SimpleRREQ.host[1].wlan[0].mac 	passedUpPk:count 	79658
attr interpolationmode  none
attr source  packetSentToUpper
attr title  "packets passed to higher layer, count"
scalar SimpleRREQ.host[1].wlan[0].mac 	passedUpPk:sum(packetBytes) 	2230424
attr interpolationmode  none
attr source  packetSentToUpper
attr title  "packets passed to higher layer, sum(packetBytes)"
scalar SimpleRREQ.host[1].wlan[0].mac 	rcvdPkFromLL:count 	79658
attr interpolationmode  none
attr source  packetReceivedFromLower
attr title  "packets received from lower layer, count"
scalar SimpleRREQ.host[1].wlan[0].mac 	rcvdPkFromLL:sum(packetBytes) 	3823584
attr interpolationmode  none
attr source  packetReceivedFromLower
attr title  "packets received from lower layer, sum(packetBytes)"
scalar SimpleRREQ.host[1].wlan[0].mac 	sentDownPk:count 	12298
attr interpolationmode  none
attr source  packetSentToLower
attr title  "packets sent to lower layer, count"
scalar SimpleRREQ.host[1].wlan[0].mac 	sentDownPk:sum(packetBytes) 	590304
attr interpolationmode  none
attr source  packetSentToLower
attr title  "packets sent to lower layer, sum(packetBytes)"
statistic SimpleRREQ.host[1].wlan[0].radio 	symbolErrorRate:histogram
field count 79658
field mean 0.52540862185844
field stddev 0.49935711899067
field sum 41853
field sqrsum 41853
field min 0
field max 1
attr source  symbolErrorRate
attr title  "Symbol error rate, histogram"
bin	-INF	0
bin	-1	0
bin	0	37805
bin	1	41853
bin	2	0
statistic SimpleRREQ.host[1].wlan[0].radio 	bitErrorRate:histogram
field count 79658
field mean 0.52540862185844
field stddev 0.49935711899067
field sum 41853
field sqrsum 41853
field min 0
field max 1
attr source  bitErrorRate
attr title  "Bit error rate, histogram"
bin	-INF	0
bin	-1	0
bin	0	37805
bin	1	41853
bin	2	0
statistic SimpleRREQ.host[1].wlan[0].radio 	packetErrorRate:histogram
field count 79658
field mean 0.52540862185844
field stddev 0.49935711899067
field sum 41853
field sqrsum 41853
field min 0
field max 1
attr source  packetErrorRate
attr title  "Packet error rate, histogram"
bin	-INF	0
bin	-1	0
bin	0	37805
bin	1	41853
bin	2	0
statistic SimpleRREQ.host[1].wlan[0].radio 	minSNIR:histogram
field count 79658
field mean nan
field stddev nan
field sum nan
field sqrsum nan
field min nan
field max nan
attr source  minSNIR
attr title  "Min SNIR, histogram"
bin	-INF	79658
bin	nan	0
bin	nan	0
bin	nan	0
bin	nan	0
bin	nan	0
bin	nan	0
bin	nan	0
bin	nan	0
bin	nan	0
bin	nan	0
bin	nan	0
bin	nan	0
bin	nan	0
bin	nan	0
bin	nan	0
bin	nan	0
bin	nan	0
bin	nan	0
bin	nan	0
bin	nan	0
bin	nan	0
bin	nan	0
bin	nan	0
bin	nan	0
bin	nan	0
bin	nan	0
bin	nan	0
bin	nan	0
bin	nan	0
bin	nan	0
bin	nan	0
scalar SimpleRREQ.host[1].wlan[0].radio 	transmissionState:count 	24596
attr interpolationmode  sample-hold
attr source  transmissionStateChanged
attr title  "Radio transmission state, count"
scalar SimpleRREQ.host[1].wlan[0].radio 	receptionState:count 	159317
attr interpolationmode  sample-hold
attr source  receptionStateChanged
attr title  "Radio reception state, count"
scalar SimpleRREQ.host[1].wlan[0].radio 	radioMode:count 	2
attr interpolationmode  sample-hold
attr source  radioModeChanged
attr title  "Radio mode, count"
scalar SimpleRREQ.host[1].pingApp[0] 	"Pings sent" 	1199
scalar SimpleRREQ.host[1].pingApp[0] 	"ping loss rate (%)" 	100
scalar SimpleRREQ.host[1].pingApp[0] 	"ping out-of-order rate (%)" 	0
scalar SimpleRREQ.host[1].pingApp[0] 	numOutOfOrderArrivals:last 	nan
attr interpolationmode  none
attr title  "ping out-of-order arrivals, last"
scalar SimpleRREQ.host[1].pingApp[0] 	pingRxSeq:count 	0
attr interpolationmode  none
attr title  "ping rx seq, count"
scalar SimpleRREQ.host[1].pingApp[0] 	pingTxSeq:count 	1199
attr interpolationmode  none
attr title  "ping tx seq, count"
scalar SimpleRREQ.host[1].pingApp[0] 	numLost:last 	nan
attr interpolationmode  none
attr title  "pings lost, last"
statistic SimpleRREQ.host[1].pingApp[0] 	rtt:histogram
field count 0
field mean nan
field stddev nan
field sum 0
field sqrsum 0
field min nan
field max nan
attr interpolationmode  none
attr title  "ping round-trip time, histogram"
attr unit  s
bin	-INF	0
bin	-0.5	0
bin	-0.46666666666667	0
bin	-0.43333333333333	0
bin	-0.4	0
bin	-0.36666666666667	0
bin	-0.33333333333333	0
bin	-0.3	0
bin	-0.26666666666667	0
bin	-0.23333333333333	0
bin	-0.2	0
bin	-0.16666666666667	0
bin	-0.13333333333333	0
bin	-0.1	0
bin	-0.066666666666667	0
bin	-0.033333333333333	0
bin	0	0
bin	0.033333333333333	0
bin	0.066666666666667	0
bin	0.1	0
bin	0.13333333333333	0
bin	0.16666666666667	0
bin	0.2	0
bin	0.23333333333333	0
bin	0.26666666666667	0
bin	0.3	0
bin	0.33333333333333	0
bin	0.36666666666667	0
bin	0.4	0
bin	0.43333333333333	0
bin	0.46666666666667	0
bin	0.5	0
scalar SimpleRREQ.host[1].epf 	dataFwd:count 	374
attr interpolationmode  none
attr source  dataFwd
attr title  "Forward Data message, count"
scalar SimpleRREQ.host[1].epf 	dataDest:count 	430
attr interpolationmode  none
attr source  dataDest
attr title  "Received Data message on Destination, count"
scalar SimpleRREQ.host[1].epf 	dataRec:count 	10660
attr interpolationmode  none
attr source  dataRec
attr title  "Received Data message, count"
scalar SimpleRREQ.host[1].epf 	dataSent:count 	640
attr interpolationmode  none
attr source  dataSent
attr title  "Sent Data message, count"
scalar SimpleRREQ.host[1].epf 	destResp:count 	346
attr interpolationmode  none
attr source  destResp
attr title  "Response from destination, count"
scalar SimpleRREQ.host[1].epf 	destEnq:count 	346
attr interpolationmode  none
attr source  destEnq
attr title  "Enquire to Destination, count"
scalar SimpleRREQ.host[1].epf 	respNOkRec:count 	2548
attr interpolationmode  none
attr source  respNOkRec
attr title  "Received Not Ok Response message, count"
scalar SimpleRREQ.host[1].epf 	respNOkSent:count 	3236
attr interpolationmode  none
attr source  respNOkSent
attr title  "Sent Not Ok Response message, count"
scalar SimpleRREQ.host[1].epf 	respOkRec:count 	640
attr interpolationmode  none
attr source  respOkRec
attr title  "Received Ok Response message, count"
scalar SimpleRREQ.host[1].epf 	respOkSent:count 	2055
attr interpolationmode  none
attr source  respOkSent
attr title  "Sent Ok Response message, count"
scalar SimpleRREQ.host[1].epf 	respRec:count 	57918
attr interpolationmode  none
attr source  respRec
attr title  "Received Response message, count"
scalar SimpleRREQ.host[1].epf 	respSent:count 	0
attr interpolationmode  none
attr source  respSent
attr title  "Sent Response message, count"
scalar SimpleRREQ.host[1].epf 	enquireRec:count 	10281
attr interpolationmode  none
attr source  enquireRec
attr title  "Received Enquire message, count"
scalar SimpleRREQ.host[1].epf 	enquireSent:count 	452
attr interpolationmode  none
attr source  enquireSent
attr title  "Sent Enquire message, count"
scalar SimpleRREQ.host[1].epf 	rrep2Rec:count 	0
attr interpolationmode  none
attr source  rrep2Rec
attr title  "Received type 2 RREP, count"
scalar SimpleRREQ.host[1].epf 	rrep1Rec:count 	0
attr interpolationmode  none
attr source  rrep1Rec
attr title  "Received type 1 RREP, count"
scalar SimpleRREQ.host[1].epf 	rrepRec:count 	0
attr interpolationmode  none
attr source  rrepRec
attr title  "Received RREP, count"
scalar SimpleRREQ.host[1].epf 	rreq1Rec:count 	0
attr interpolationmode  none
attr source  rreq1Rec
attr title  "Received type 1 RREQ, count"
scalar SimpleRREQ.host[1].epf 	rreqRec:count 	0
attr interpolationmode  none
attr source  rreqRec
attr title  "Received RREQ, count"
scalar SimpleRREQ.host[1].epf 	rrepSent:count 	0
attr interpolationmode  none
attr source  rrepSent
attr title  "Sent RREP, count"
scalar SimpleRREQ.host[1].epf 	rreqSent:count 	0
attr interpolationmode  none
attr source  rreqSent
attr title  "Sent RREQ, count"
scalar SimpleRREQ.host[2].networkLayer.arp 	sentReply:count 	0
attr title  "ARP replies sent, count"
scalar SimpleRREQ.host[2].networkLayer.arp 	sentReq:count 	0
attr title  "ARP request sent, count"
scalar SimpleRREQ.host[2].networkLayer.arp 	failedARPResolution:count 	0
attr title  "ARP failed resolutions, count"
scalar SimpleRREQ.host[2].networkLayer.arp 	completedARPResolution:count 	0
attr title  "ARP completed resolutions, count"
scalar SimpleRREQ.host[2].networkLayer.arp 	initiatedARPResolution:count 	0
attr title  "ARP initiated resolutions, count"
scalar SimpleRREQ.host[2].lo0.lo 	droppedPkBitError:count 	0
attr interpolationmode  none
attr source  dropPkBitError
attr title  "packets dropped/bit error, count"
scalar SimpleRREQ.host[2].lo0.lo 	droppedPkBitError:sum(packetBytes) 	0
attr interpolationmode  none
attr source  dropPkBitError
attr title  "packets dropped/bit error, sum(packetBytes)"
scalar SimpleRREQ.host[2].lo0.lo 	rcvdPkFromHL:count 	0
attr interpolationmode  none
attr source  packetReceivedFromUpper
attr title  "packets received from higher layer, count"
scalar SimpleRREQ.host[2].lo0.lo 	rcvdPkFromHL:sum(packetBytes) 	0
attr interpolationmode  none
attr source  packetReceivedFromUpper
attr title  "packets received from higher layer, sum(packetBytes)"
scalar SimpleRREQ.host[2].lo0.lo 	passedUpPk:count 	0
attr interpolationmode  none
attr source  packetSentToUpper
attr title  "packets passed to higher layer, count"
scalar SimpleRREQ.host[2].lo0.lo 	passedUpPk:sum(packetBytes) 	0
attr interpolationmode  none
attr source  packetSentToUpper
attr title  "packets passed to higher layer, sum(packetBytes)"
scalar SimpleRREQ.host[2].wlan[0].queue 	queueLength:max 	3
attr interpolationmode  sample-hold
attr title  "queue length, max"
scalar SimpleRREQ.host[2].wlan[0].queue 	queueLength:timeavg 	0.00013168482006167
attr interpolationmode  sample-hold
attr title  "queue length, timeavg"
statistic SimpleRREQ.host[2].wlan[0].queue 	queueingTime:histogram
field count 12415
field mean 1.2728295132823e-005
field stddev 5.2237885651908e-005
field sum 0.158021784074
field sqrsum 3.5886630106406e-005
field min 0
field max 0.000575769
attr interpolationmode  none
attr title  "queueing time, histogram"
bin	-INF	0
bin	-0.0001919038515	0
bin	-0.0001663166713	0
bin	-0.0001407294911	0
bin	-0.0001151423109	0
bin	-8.95551307e-005	0
bin	-6.39679505e-005	0
bin	-3.83807703e-005	0
bin	-1.27935901e-005	11663
bin	1.27935901e-005	0
bin	3.83807703e-005	0
bin	6.39679505e-005	0
bin	8.95551307e-005	0
bin	0.0001151423109	0
bin	0.0001407294911	0
bin	0.0001663166713	490
bin	0.0001919038515	194
bin	0.0002174910317	0
bin	0.0002430782119	0
bin	0.0002686653921	0
bin	0.0002942525723	0
bin	0.0003198397525	0
bin	0.0003454269327	0
bin	0.0003710141129	64
bin	0.0003966012931	0
bin	0.0004221884733	0
bin	0.0004477756535	0
bin	0.0004733628337	0
bin	0.0004989500139	0
bin	0.0005245371941	0
bin	0.0005501243743	3
bin	0.0005757115545	1
scalar SimpleRREQ.host[2].wlan[0].queue 	dropPk:count 	0
attr interpolationmode  none
attr source  dropPkByQueue
attr title  "dropped packets, count"
scalar SimpleRREQ.host[2].wlan[0].queue 	dropPk:sum(packetBytes) 	0
attr interpolationmode  none
attr source  dropPkByQueue
attr title  "dropped packets, sum(packetBytes)"
scalar SimpleRREQ.host[2].wlan[0].queue 	rcvdPk:count 	12415
attr interpolationmode  none
attr title  "received packets, count"
scalar SimpleRREQ.host[2].wlan[0].queue 	rcvdPk:sum(packetBytes) 	347620
attr interpolationmode  none
attr title  "received packets, sum(packetBytes)"
scalar SimpleRREQ.host[2].wlan[0].mac 	droppedPkNotForUs:count 	0
attr interpolationmode  none
attr source  dropPkNotForUs
attr title  "packets dropped/not for us, count"
scalar SimpleRREQ.host[2].wlan[0].mac 	droppedPkNotForUs:sum(packetBytes) 	0
attr interpolationmode  none
attr source  dropPkNotForUs
attr title  "packets dropped/not for us, sum(packetBytes)"
scalar SimpleRREQ.host[2].wlan[0].mac 	rcvdPkFromHL:count 	12415
attr interpolationmode  none
attr source  packetReceivedFromUpper
attr title  "packets received from higher layer, count"
scalar SimpleRREQ.host[2].wlan[0].mac 	rcvdPkFromHL:sum(packetBytes) 	347620
attr interpolationmode  none
attr source  packetReceivedFromUpper
attr title  "packets received from higher layer, sum(packetBytes)"
scalar SimpleRREQ.host[2].wlan[0].mac 	passedUpPk:count 	81218
attr interpolationmode  none
attr source  packetSentToUpper
attr title  "packets passed to higher layer, count"
scalar SimpleRREQ.host[2].wlan[0].mac 	passedUpPk:sum(packetBytes) 	2274104
attr interpolationmode  none
attr source  packetSentToUpper
attr title  "packets passed to higher layer, sum(packetBytes)"
scalar SimpleRREQ.host[2].wlan[0].mac 	rcvdPkFromLL:count 	81218
attr interpolationmode  none
attr source  packetReceivedFromLower
attr title  "packets received from lower layer, count"
scalar SimpleRREQ.host[2].wlan[0].mac 	rcvdPkFromLL:sum(packetBytes) 	3898464
attr interpolationmode  none
attr source  packetReceivedFromLower
attr title  "packets received from lower layer, sum(packetBytes)"
scalar SimpleRREQ.host[2].wlan[0].mac 	sentDownPk:count 	12415
attr interpolationmode  none
attr source  packetSentToLower
attr title  "packets sent to lower layer, count"
scalar SimpleRREQ.host[2].wlan[0].mac 	sentDownPk:sum(packetBytes) 	595920
attr interpolationmode  none
attr source  packetSentToLower
attr title  "packets sent to lower layer, sum(packetBytes)"
statistic SimpleRREQ.host[2].wlan[0].radio 	symbolErrorRate:histogram
field count 81218
field mean 0.51883818857889
field stddev 0.49964807260197
field sum 42139
field sqrsum 42139
field min 0
field max 1
attr source  symbolErrorRate
attr title  "Symbol error rate, histogram"
bin	-INF	0
bin	-1	0
bin	0	39079
bin	1	42139
bin	2	0
statistic SimpleRREQ.host[2].wlan[0].radio 	bitErrorRate:histogram
field count 81218
field mean 0.51883818857889
field stddev 0.49964807260197
field sum 42139
field sqrsum 42139
field min 0
field max 1
attr source  bitErrorRate
attr title  "Bit error rate, histogram"
bin	-INF	0
bin	-1	0
bin	0	39079
bin	1	42139
bin	2	0
statistic SimpleRREQ.host[2].wlan[0].radio 	packetErrorRate:histogram
field count 81218
field mean 0.51883818857889
field stddev 0.49964807260197
field sum 42139
field sqrsum 42139
field min 0
field max 1
attr source  packetErrorRate
attr title  "Packet error rate, histogram"
bin	-INF	0
bin	-1	0
bin	0	39079
bin	1	42139
bin	2	0
statistic SimpleRREQ.host[2].wlan[0].radio 	minSNIR:histogram
field count 81218
field mean nan
field stddev nan
field sum nan
field sqrsum nan
field min nan
field max nan
attr source  minSNIR
attr title  "Min SNIR, histogram"
bin	-INF	81218
bin	nan	0
bin	nan	0
bin	nan	0
bin	nan	0
bin	nan	0
bin	nan	0
bin	nan	0
bin	nan	0
bin	nan	0
bin	nan	0
bin	nan	0
bin	nan	0
bin	nan	0
bin	nan	0
bin	nan	0
bin	nan	0
bin	nan	0
bin	nan	0
bin	nan	0
bin	nan	0
bin	nan	0
bin	nan	0
bin	nan	0
bin	nan	0
bin	nan	0
bin	nan	0
bin	nan	0
bin	nan	0
bin	nan	0
bin	nan	0
bin	nan	0
scalar SimpleRREQ.host[2].wlan[0].radio 	transmissionState:count 	24830
attr interpolationmode  sample-hold
attr source  transmissionStateChanged
attr title  "Radio transmission state, count"
scalar SimpleRREQ.host[2].wlan[0].radio 	receptionState:count 	162438
attr interpolationmode  sample-hold
attr source  receptionStateChanged
attr title  "Radio reception state, count"
scalar SimpleRREQ.host[2].wlan[0].radio 	radioMode:count 	2
attr interpolationmode  sample-hold
attr source  radioModeChanged
attr title  "Radio mode, count"
scalar SimpleRREQ.host[2].pingApp[0] 	"Pings sent" 	1197
scalar SimpleRREQ.host[2].pingApp[0] 	"ping loss rate (%)" 	100
scalar SimpleRREQ.host[2].pingApp[0] 	"ping out-of-order rate (%)" 	0
scalar SimpleRREQ.host[2].pingApp[0] 	numOutOfOrderArrivals:last 	nan
attr interpolationmode  none
attr title  "ping out-of-order arrivals, last"
scalar SimpleRREQ.host[2].pingApp[0] 	pingRxSeq:count 	0
attr interpolationmode  none
attr title  "ping rx seq, count"
scalar SimpleRREQ.host[2].pingApp[0] 	pingTxSeq:count 	1197
attr interpolationmode  none
attr title  "ping tx seq, count"
scalar SimpleRREQ.host[2].pingApp[0] 	numLost:last 	nan
attr interpolationmode  none
attr title  "pings lost, last"
statistic SimpleRREQ.host[2].pingApp[0] 	rtt:histogram
field count 0
field mean nan
field stddev nan
field sum 0
field sqrsum 0
field min nan
field max nan
attr interpolationmode  none
attr title  "ping round-trip time, histogram"
attr unit  s
bin	-INF	0
bin	-0.5	0
bin	-0.46666666666667	0
bin	-0.43333333333333	0
bin	-0.4	0
bin	-0.36666666666667	0
bin	-0.33333333333333	0
bin	-0.3	0
bin	-0.26666666666667	0
bin	-0.23333333333333	0
bin	-0.2	0
bin	-0.16666666666667	0
bin	-0.13333333333333	0
bin	-0.1	0
bin	-0.066666666666667	0
bin	-0.033333333333333	0
bin	0	0
bin	0.033333333333333	0
bin	0.066666666666667	0
bin	0.1	0
bin	0.13333333333333	0
bin	0.16666666666667	0
bin	0.2	0
bin	0.23333333333333	0
bin	0.26666666666667	0
bin	0.3	0
bin	0.33333333333333	0
bin	0.36666666666667	0
bin	0.4	0
bin	0.43333333333333	0
bin	0.46666666666667	0
bin	0.5	0
scalar SimpleRREQ.host[2].epf 	dataFwd:count 	319
attr interpolationmode  none
attr source  dataFwd
attr title  "Forward Data message, count"
scalar SimpleRREQ.host[2].epf 	dataDest:count 	366
attr interpolationmode  none
attr source  dataDest
attr title  "Received Data message on Destination, count"
scalar SimpleRREQ.host[2].epf 	dataRec:count 	10384
attr interpolationmode  none
attr source  dataRec
attr title  "Received Data message, count"
scalar SimpleRREQ.host[2].epf 	dataSent:count 	651
attr interpolationmode  none
attr source  dataSent
attr title  "Sent Data message, count"
scalar SimpleRREQ.host[2].epf 	destResp:count 	362
attr interpolationmode  none
attr source  destResp
attr title  "Response from destination, count"
scalar SimpleRREQ.host[2].epf 	destEnq:count 	362
attr interpolationmode  none
attr source  destEnq
attr title  "Enquire to Destination, count"
scalar SimpleRREQ.host[2].epf 	respNOkRec:count 	3056
attr interpolationmode  none
attr source  respNOkRec
attr title  "Received Not Ok Response message, count"
scalar SimpleRREQ.host[2].epf 	respNOkSent:count 	3926
attr interpolationmode  none
attr source  respNOkSent
attr title  "Sent Not Ok Response message, count"
scalar SimpleRREQ.host[2].epf 	respOkRec:count 	651
attr interpolationmode  none
attr source  respOkRec
attr title  "Received Ok Response message, count"
scalar SimpleRREQ.host[2].epf 	respOkSent:count 	1934
attr interpolationmode  none
attr source  respOkSent
attr title  "Sent Ok Response message, count"
scalar SimpleRREQ.host[2].epf 	respRec:count 	59587
attr interpolationmode  none
attr source  respRec
attr title  "Received Response message, count"
scalar SimpleRREQ.host[2].epf 	respSent:count 	0
attr interpolationmode  none
attr source  respSent
attr title  "Sent Response message, count"
scalar SimpleRREQ.host[2].epf 	enquireRec:count 	10448
attr interpolationmode  none
attr source  enquireRec
attr title  "Received Enquire message, count"
scalar SimpleRREQ.host[2].epf 	enquireSent:count 	456
attr interpolationmode  none
attr source  enquireSent
attr title  "Sent Enquire message, count"
scalar SimpleRREQ.host[2].epf 	rrep2Rec:count 	0
attr interpolationmode  none
attr source  rrep2Rec
attr title  "Received type 2 RREP, count"
scalar SimpleRREQ.host[2].epf 	rrep1Rec:count 	0
attr interpolationmode  none
attr source  rrep1Rec
attr title  "Received type 1 RREP, count"
scalar SimpleRREQ.host[2].epf 	rrepRec:count 	0
attr interpolationmode  none
attr source  rrepRec
attr title  "Received RREP, count"
scalar SimpleRREQ.host[2].epf 	rreq1Rec:count 	0
attr interpolationmode  none
attr source  rreq1Rec
attr title  "Received type 1 RREQ, count"
scalar SimpleRREQ.host[2].epf 	rreqRec:count 	0
attr interpolationmode  none
attr source  rreqRec
attr title  "Received RREQ, count"
scalar SimpleRREQ.host[2].epf 	rrepSent:count 	0
attr interpolationmode  none
attr source  rrepSent
attr title  "Sent RREP, count"
scalar SimpleRREQ.host[2].epf 	rreqSent:count 	0
attr interpolationmode  none
attr source  rreqSent
attr title  "Sent RREQ, count"
scalar SimpleRREQ.host[3].networkLayer.arp 	sentReply:count 	0
attr title  "ARP replies sent, count"
scalar SimpleRREQ.host[3].networkLayer.arp 	sentReq:count 	0
attr title  "ARP request sent, count"
scalar SimpleRREQ.host[3].networkLayer.arp 	failedARPResolution:count 	0
attr title  "ARP failed resolutions, count"
scalar SimpleRREQ.host[3].networkLayer.arp 	completedARPResolution:count 	0
attr title  "ARP completed resolutions, count"
scalar SimpleRREQ.host[3].networkLayer.arp 	initiatedARPResolution:count 	0
attr title  "ARP initiated resolutions, count"
scalar SimpleRREQ.host[3].lo0.lo 	droppedPkBitError:count 	0
attr interpolationmode  none
attr source  dropPkBitError
attr title  "packets dropped/bit error, count"
scalar SimpleRREQ.host[3].lo0.lo 	droppedPkBitError:sum(packetBytes) 	0
attr interpolationmode  none
attr source  dropPkBitError
attr title  "packets dropped/bit error, sum(packetBytes)"
scalar SimpleRREQ.host[3].lo0.lo 	rcvdPkFromHL:count 	0
attr interpolationmode  none
attr source  packetReceivedFromUpper
attr title  "packets received from higher layer, count"
scalar SimpleRREQ.host[3].lo0.lo 	rcvdPkFromHL:sum(packetBytes) 	0
attr interpolationmode  none
attr source  packetReceivedFromUpper
attr title  "packets received from higher layer, sum(packetBytes)"
scalar SimpleRREQ.host[3].lo0.lo 	passedUpPk:count 	0
attr interpolationmode  none
attr source  packetSentToUpper
attr title  "packets passed to higher layer, count"
scalar SimpleRREQ.host[3].lo0.lo 	passedUpPk:sum(packetBytes) 	0
attr interpolationmode  none
attr source  packetSentToUpper
attr title  "packets passed to higher layer, sum(packetBytes)"
scalar SimpleRREQ.host[3].wlan[0].queue 	queueLength:max 	3
attr interpolationmode  sample-hold
attr title  "queue length, max"
scalar SimpleRREQ.host[3].wlan[0].queue 	queueLength:timeavg 	0.00011713436109
attr interpolationmode  sample-hold
attr title  "queue length, timeavg"
statistic SimpleRREQ.host[3].wlan[0].queue 	queueingTime:histogram
field count 11899
field mean 1.1812861022607e-005
field stddev 4.9650366384279e-005
field sum 0.140561233308
field sqrsum 3.0990890693378e-005
field min 0
field max 0.000575826646
attr interpolationmode  none
attr title  "queueing time, histogram"
bin	-INF	0
bin	-0.000191893587	0
bin	-0.0001663077754	0
bin	-0.0001407219638	0
bin	-0.0001151361522	0
bin	-8.95503406e-005	0
bin	-6.3964529e-005	0
bin	-3.83787174e-005	0
bin	-1.27929058e-005	11218
bin	1.27929058e-005	0
bin	3.83787174e-005	0
bin	6.3964529e-005	0
bin	8.95503406e-005	0
bin	0.0001151361522	0
bin	0.0001407219638	0
bin	0.0001663077754	458
bin	0.000191893587	174
bin	0.0002174793986	0
bin	0.0002430652102	0
bin	0.0002686510218	0
bin	0.0002942368334	0
bin	0.000319822645	0
bin	0.0003454084566	0
bin	0.0003709942682	46
bin	0.0003965800798	0
bin	0.0004221658914	0
bin	0.000447751703	0
bin	0.0004733375146	0
bin	0.0004989233262	0
bin	0.0005245091378	0
bin	0.0005500949494	2
bin	0.000575680761	1
scalar SimpleRREQ.host[3].wlan[0].queue 	dropPk:count 	0
attr interpolationmode  none
attr source  dropPkByQueue
attr title  "dropped packets, count"
scalar SimpleRREQ.host[3].wlan[0].queue 	dropPk:sum(packetBytes) 	0
attr interpolationmode  none
attr source  dropPkByQueue
attr title  "dropped packets, sum(packetBytes)"
scalar SimpleRREQ.host[3].wlan[0].queue 	rcvdPk:count 	11899
attr interpolationmode  none
attr title  "received packets, count"
scalar SimpleRREQ.host[3].wlan[0].queue 	rcvdPk:sum(packetBytes) 	333172
attr interpolationmode  none
attr title  "received packets, sum(packetBytes)"
scalar SimpleRREQ.host[3].wlan[0].mac 	droppedPkNotForUs:count 	0
attr interpolationmode  none
attr source  dropPkNotForUs
attr title  "packets dropped/not for us, count"
scalar SimpleRREQ.host[3].wlan[0].mac 	droppedPkNotForUs:sum(packetBytes) 	0
attr interpolationmode  none
attr source  dropPkNotForUs
attr title  "packets dropped/not for us, sum(packetBytes)"
scalar SimpleRREQ.host[3].wlan[0].mac 	rcvdPkFromHL:count 	11899
attr interpolationmode  none
attr source  packetReceivedFromUpper
attr title  "packets received from higher layer, count"
scalar SimpleRREQ.host[3].wlan[0].mac 	rcvdPkFromHL:sum(packetBytes) 	333172
attr interpolationmode  none
attr source  packetReceivedFromUpper
attr title  "packets received from higher layer, sum(packetBytes)"
scalar SimpleRREQ.host[3].wlan[0].mac 	passedUpPk:count 	80436
attr interpolationmode  none
attr source  packetSentToUpper
attr title  "packets passed to higher layer, count"
scalar SimpleRREQ.host[3].wlan[0].mac 	passedUpPk:sum(packetBytes) 	2252208
attr interpolationmode  none
attr source  packetSentToUpper
attr title  "packets passed to higher layer, sum(packetBytes)"
scalar SimpleRREQ.host[3].wlan[0].mac 	rcvdPkFromLL:count 	80436
attr interpolationmode  none
attr source  packetReceivedFromLower
attr title  "packets received from lower layer, count"
scalar SimpleRREQ.host[3].wlan[0].mac 	rcvdPkFromLL:sum(packetBytes) 	3860928
attr interpolationmode  none
attr source  packetReceivedFromLower
attr title  "packets received from lower layer, sum(packetBytes)"
scalar SimpleRREQ.host[3].wlan[0].mac 	sentDownPk:count 	11899
attr interpolationmode  none
attr source  packetSentToLower
attr title  "packets sent to lower layer, count"
scalar SimpleRREQ.host[3].wlan[0].mac 	sentDownPk:sum(packetBytes) 	571152
attr interpolationmode  none
attr source  packetSentToLower
attr title  "packets sent to lower layer, sum(packetBytes)"
statistic SimpleRREQ.host[3].wlan[0].radio 	symbolErrorRate:histogram
field count 80436
field mean 0.55093490476901
field stddev 0.49740196151775
field sum 44315
field sqrsum 44315
field min 0
field max 1
attr source  symbolErrorRate
attr title  "Symbol error rate, histogram"
bin	-INF	0
bin	-1	0
bin	0	36121
bin	1	44315
bin	2	0
statistic SimpleRREQ.host[3].wlan[0].radio 	bitErrorRate:histogram
field count 80436
field mean 0.55093490476901
field stddev 0.49740196151775
field sum 44315
field sqrsum 44315
field min 0
field max 1
attr source  bitErrorRate
attr title  "Bit error rate, histogram"
bin	-INF	0
bin	-1	0
bin	0	36121
bin	1	44315
bin	2	0
statistic SimpleRREQ.host[3].wlan[0].radio 	packetErrorRate:histogram
field count 80436
field mean 0.55093490476901
field stddev 0.49740196151775
field sum 44315
field sqrsum 44315
field min 0
field max 1
attr source  packetErrorRate
attr title  "Packet error rate, histogram"
bin	-INF	0
bin	-1	0
bin	0	36121
bin	1	44315
bin	2	0
statistic SimpleRREQ.host[3].wlan[0].radio 	minSNIR:histogram
field count 80436
field mean nan
field stddev nan
field sum nan
field sqrsum nan
field min nan
field max nan
attr source  minSNIR
attr title  "Min SNIR, histogram"
bin	-INF	80436
bin	nan	0
bin	nan	0
bin	nan	0
bin	nan	0
bin	nan	0
bin	nan	0
bin	nan	0
bin	nan	0
bin	nan	0
bin	nan	0
bin	nan	0
bin	nan	0
bin	nan	0
bin	nan	0
bin	nan	0
bin	nan	0
bin	nan	0
bin	nan	0
bin	nan	0
bin	nan	0
bin	nan	0
bin	nan	0
bin	nan	0
bin	nan	0
bin	nan	0
bin	nan	0
bin	nan	0
bin	nan	0
bin	nan	0
bin	nan	0
bin	nan	0
scalar SimpleRREQ.host[3].wlan[0].radio 	transmissionState:count 	23798
attr interpolationmode  sample-hold
attr source  transmissionStateChanged
attr title  "Radio transmission state, count"
scalar SimpleRREQ.host[3].wlan[0].radio 	receptionState:count 	160873
attr interpolationmode  sample-hold
attr source  receptionStateChanged
attr title  "Radio reception state, count"
scalar SimpleRREQ.host[3].wlan[0].radio 	radioMode:count 	2
attr interpolationmode  sample-hold
attr source  radioModeChanged
attr title  "Radio mode, count"
scalar SimpleRREQ.host[3].pingApp[0] 	"Pings sent" 	1198
scalar SimpleRREQ.host[3].pingApp[0] 	"ping loss rate (%)" 	100
scalar SimpleRREQ.host[3].pingApp[0] 	"ping out-of-order rate (%)" 	0
scalar SimpleRREQ.host[3].pingApp[0] 	numOutOfOrderArrivals:last 	nan
attr interpolationmode  none
attr title  "ping out-of-order arrivals, last"
scalar SimpleRREQ.host[3].pingApp[0] 	pingRxSeq:count 	0
attr interpolationmode  none
attr title  "ping rx seq, count"
scalar SimpleRREQ.host[3].pingApp[0] 	pingTxSeq:count 	1198
attr interpolationmode  none
attr title  "ping tx seq, count"
scalar SimpleRREQ.host[3].pingApp[0] 	numLost:last 	nan
attr interpolationmode  none
attr title  "pings lost, last"
statistic SimpleRREQ.host[3].pingApp[0] 	rtt:histogram
field count 0
field mean nan
field stddev nan
field sum 0
field sqrsum 0
field min nan
field max nan
attr interpolationmode  none
attr title  "ping round-trip time, histogram"
attr unit  s
bin	-INF	0
bin	-0.5	0
bin	-0.46666666666667	0
bin	-0.43333333333333	0
bin	-0.4	0
bin	-0.36666666666667	0
bin	-0.33333333333333	0
bin	-0.3	0
bin	-0.26666666666667	0
bin	-0.23333333333333	0
bin	-0.2	0
bin	-0.16666666666667	0
bin	-0.13333333333333	0
bin	-0.1	0
bin	-0.066666666666667	0
bin	-0.033333333333333	0
bin	0	0
bin	0.033333333333333	0
bin	0.066666666666667	0
bin	0.1	0
bin	0.13333333333333	0
bin	0.16666666666667	0
bin	0.2	0
bin	0.23333333333333	0
bin	0.26666666666667	0
bin	0.3	0
bin	0.33333333333333	0
bin	0.36666666666667	0
bin	0.4	0
bin	0.43333333333333	0
bin	0.46666666666667	0
bin	0.5	0
scalar SimpleRREQ.host[3].epf 	dataFwd:count 	266
attr interpolationmode  none
attr source  dataFwd
attr title  "Forward Data message, count"
scalar SimpleRREQ.host[3].epf 	dataDest:count 	427
attr interpolationmode  none
attr source  dataDest
attr title  "Received Data message on Destination, count"
scalar SimpleRREQ.host[3].epf 	dataRec:count 	9706
attr interpolationmode  none
attr source  dataRec
attr title  "Received Data message, count"
scalar SimpleRREQ.host[3].epf 	dataSent:count 	573
attr interpolationmode  none
attr source  dataSent
attr title  "Sent Data message, count"
scalar SimpleRREQ.host[3].epf 	destResp:count 	349
attr interpolationmode  none
attr source  destResp
attr title  "Response from destination, count"
scalar SimpleRREQ.host[3].epf 	destEnq:count 	349
attr interpolationmode  none
attr source  destEnq
attr title  "Enquire to Destination, count"
scalar SimpleRREQ.host[3].epf 	respNOkRec:count 	2678
attr interpolationmode  none
attr source  respNOkRec
attr title  "Received Not Ok Response message, count"
scalar SimpleRREQ.host[3].epf 	respNOkSent:count 	4386
attr interpolationmode  none
attr source  respNOkSent
attr title  "Sent Not Ok Response message, count"
scalar SimpleRREQ.host[3].epf 	respOkRec:count 	573
attr interpolationmode  none
attr source  respOkRec
attr title  "Received Ok Response message, count"
scalar SimpleRREQ.host[3].epf 	respOkSent:count 	1462
attr interpolationmode  none
attr source  respOkSent
attr title  "Sent Ok Response message, count"
scalar SimpleRREQ.host[3].epf 	respRec:count 	59871
attr interpolationmode  none
attr source  respRec
attr title  "Received Response message, count"
scalar SimpleRREQ.host[3].epf 	respSent:count 	0
attr interpolationmode  none
attr source  respSent
attr title  "Sent Response message, count"
scalar SimpleRREQ.host[3].epf 	enquireRec:count 	10060
attr interpolationmode  none
attr source  enquireRec
attr title  "Received Enquire message, count"
scalar SimpleRREQ.host[3].epf 	enquireSent:count 	413
attr interpolationmode  none
attr source  enquireSent
attr title  "Sent Enquire message, count"
scalar SimpleRREQ.host[3].epf 	rrep2Rec:count 	0
attr interpolationmode  none
attr source  rrep2Rec
attr title  "Received type 2 RREP, count"
scalar SimpleRREQ.host[3].epf 	rrep1Rec:count 	0
attr interpolationmode  none
attr source  rrep1Rec
attr title  "Received type 1 RREP, count"
scalar SimpleRREQ.host[3].epf 	rrepRec:count 	0
attr interpolationmode  none
attr source  rrepRec
attr title  "Received RREP, count"
scalar SimpleRREQ.host[3].epf 	rreq1Rec:count 	0
attr interpolationmode  none
attr source  rreq1Rec
attr title  "Received type 1 RREQ, count"
scalar SimpleRREQ.host[3].epf 	rreqRec:count 	0
attr interpolationmode  none
attr source  rreqRec
attr title  "Received RREQ, count"
scalar SimpleRREQ.host[3].epf 	rrepSent:count 	0
attr interpolationmode  none
attr source  rrepSent
attr title  "Sent RREP, count"
scalar SimpleRREQ.host[3].epf 	rreqSent:count 	0
attr interpolationmode  none
attr source  rreqSent
attr title  "Sent RREQ, count"
scalar SimpleRREQ.host[4].networkLayer.arp 	sentReply:count 	0
attr title  "ARP replies sent, count"
scalar SimpleRREQ.host[4].networkLayer.arp 	sentReq:count 	0
attr title  "ARP request sent, count"
scalar SimpleRREQ.host[4].networkLayer.arp 	failedARPResolution:count 	0
attr title  "ARP failed resolutions, count"
scalar SimpleRREQ.host[4].networkLayer.arp 	completedARPResolution:count 	0
attr title  "ARP completed resolutions, count"
scalar SimpleRREQ.host[4].networkLayer.arp 	initiatedARPResolution:count 	0
attr title  "ARP initiated resolutions, count"
scalar SimpleRREQ.host[4].lo0.lo 	droppedPkBitError:count 	0
attr interpolationmode  none
attr source  dropPkBitError
attr title  "packets dropped/bit error, count"
scalar SimpleRREQ.host[4].lo0.lo 	droppedPkBitError:sum(packetBytes) 	0
attr interpolationmode  none
attr source  dropPkBitError
attr title  "packets dropped/bit error, sum(packetBytes)"
scalar SimpleRREQ.host[4].lo0.lo 	rcvdPkFromHL:count 	0
attr interpolationmode  none
attr source  packetReceivedFromUpper
attr title  "packets received from higher layer, count"
scalar SimpleRREQ.host[4].lo0.lo 	rcvdPkFromHL:sum(packetBytes) 	0
attr interpolationmode  none
attr source  packetReceivedFromUpper
attr title  "packets received from higher layer, sum(packetBytes)"
scalar SimpleRREQ.host[4].lo0.lo 	passedUpPk:count 	0
attr interpolationmode  none
attr source  packetSentToUpper
attr title  "packets passed to higher layer, count"
scalar SimpleRREQ.host[4].lo0.lo 	passedUpPk:sum(packetBytes) 	0
attr interpolationmode  none
attr source  packetSentToUpper
attr title  "packets passed to higher layer, sum(packetBytes)"
scalar SimpleRREQ.host[4].wlan[0].queue 	queueLength:max 	3
attr interpolationmode  sample-hold
attr title  "queue length, max"
scalar SimpleRREQ.host[4].wlan[0].queue 	queueLength:timeavg 	0.00012366763047833
attr interpolationmode  sample-hold
attr title  "queue length, timeavg"
statistic SimpleRREQ.host[4].wlan[0].queue 	queueingTime:histogram
field count 12867
field mean 1.1533469851092e-005
field stddev 4.8612640414817e-005
field sum 0.148401156574
field sqrsum 3.2116367470231e-005
field min 0
field max 0.000575578211
attr interpolationmode  none
attr title  "queueing time, histogram"
bin	-INF	0
bin	-9.5993124e-005	0
bin	-8.31940408e-005	0
bin	-7.03949576e-005	0
bin	-5.75958744e-005	0
bin	-4.47967912e-005	0
bin	-3.1997708e-005	0
bin	-1.91986248e-005	0
bin	-6.3995416e-006	12142
bin	6.3995416e-006	0
bin	1.91986248e-005	0
bin	3.1997708e-005	0
bin	4.47967912e-005	0
bin	5.75958744e-005	0
bin	7.03949576e-005	0
bin	8.31940408e-005	0
bin	9.5993124e-005	0
bin	0.0001087922072	0
bin	0.0001215912904	0
bin	0.0001343903736	0
bin	0.0001471894568	0
bin	0.00015998854	0
bin	0.0001727876232	0
bin	0.0001855867064	677
bin	0.0001983857896	0
bin	0.0002111848728	0
bin	0.000223983956	0
bin	0.0002367830392	0
bin	0.0002495821224	0
bin	0.0002623812056	0
bin	0.0002751802888	0
bin	0.000287979372	48
scalar SimpleRREQ.host[4].wlan[0].queue 	dropPk:count 	0
attr interpolationmode  none
attr source  dropPkByQueue
attr title  "dropped packets, count"
scalar SimpleRREQ.host[4].wlan[0].queue 	dropPk:sum(packetBytes) 	0
attr interpolationmode  none
attr source  dropPkByQueue
attr title  "dropped packets, sum(packetBytes)"
scalar SimpleRREQ.host[4].wlan[0].queue 	rcvdPk:count 	12867
attr interpolationmode  none
attr title  "received packets, count"
scalar SimpleRREQ.host[4].wlan[0].queue 	rcvdPk:sum(packetBytes) 	360276
attr interpolationmode  none
attr title  "received packets, sum(packetBytes)"
scalar SimpleRREQ.host[4].wlan[0].mac 	droppedPkNotForUs:count 	0
attr interpolationmode  none
attr source  dropPkNotForUs
attr title  "packets dropped/not for us, count"
scalar SimpleRREQ.host[4].wlan[0].mac 	droppedPkNotForUs:sum(packetBytes) 	0
attr interpolationmode  none
attr source  dropPkNotForUs
attr title  "packets dropped/not for us, sum(packetBytes)"
scalar SimpleRREQ.host[4].wlan[0].mac 	rcvdPkFromHL:count 	12867
attr interpolationmode  none
attr source  packetReceivedFromUpper
attr title  "packets received from higher layer, count"
scalar SimpleRREQ.host[4].wlan[0].mac 	rcvdPkFromHL:sum(packetBytes) 	360276
attr interpolationmode  none
attr source  packetReceivedFromUpper
attr title  "packets received from higher layer, sum(packetBytes)"
scalar SimpleRREQ.host[4].wlan[0].mac 	passedUpPk:count 	79363
attr interpolationmode  none
attr source  packetSentToUpper
attr title  "packets passed to higher layer, count"
scalar SimpleRREQ.host[4].wlan[0].mac 	passedUpPk:sum(packetBytes) 	2222164
attr interpolationmode  none
attr source  packetSentToUpper
attr title  "packets passed to higher layer, sum(packetBytes)"
scalar SimpleRREQ.host[4].wlan[0].mac 	rcvdPkFromLL:count 	79363
attr interpolationmode  none
attr source  packetReceivedFromLower
attr title  "packets received from lower layer, count"
scalar SimpleRREQ.host[4].wlan[0].mac 	rcvdPkFromLL:sum(packetBytes) 	3809424
attr interpolationmode  none
attr source  packetReceivedFromLower
attr title  "packets received from lower layer, sum(packetBytes)"
scalar SimpleRREQ.host[4].wlan[0].mac 	sentDownPk:count 	12867
attr interpolationmode  none
attr source  packetSentToLower
attr title  "packets sent to lower layer, count"
scalar SimpleRREQ.host[4].wlan[0].mac 	sentDownPk:sum(packetBytes) 	617616
attr interpolationmode  none
attr source  packetSentToLower
attr title  "packets sent to lower layer, sum(packetBytes)"
statistic SimpleRREQ.host[4].wlan[0].radio 	symbolErrorRate:histogram
field count 79363
field mean 0.53822310144526
field stddev 0.49853999461302
field sum 42715
field sqrsum 42715
field min 0
field max 1
attr source  symbolErrorRate
attr title  "Symbol error rate, histogram"
bin	-INF	0
bin	-1	0
bin	0	36648
bin	1	42715
bin	2	0
statistic SimpleRREQ.host[4].wlan[0].radio 	bitErrorRate:histogram
field count 79363
field mean 0.53822310144526
field stddev 0.49853999461302
field sum 42715
field sqrsum 42715
field min 0
field max 1
attr source  bitErrorRate
attr title  "Bit error rate, histogram"
bin	-INF	0
bin	-1	0
bin	0	36648
bin	1	42715
bin	2	0
statistic SimpleRREQ.host[4].wlan[0].radio 	packetErrorRate:histogram
field count 79363
field mean 0.53822310144526
field stddev 0.49853999461302
field sum 42715
field sqrsum 42715
field min 0
field max 1
attr source  packetErrorRate
attr title  "Packet error rate, histogram"
bin	-INF	0
bin	-1	0
bin	0	36648
bin	1	42715
bin	2	0
statistic SimpleRREQ.host[4].wlan[0].radio 	minSNIR:histogram
field count 79363
field mean nan
field stddev nan
field sum nan
field sqrsum nan
field min nan
field max nan
attr source  minSNIR
attr title  "Min SNIR, histogram"
bin	-INF	79363
bin	nan	0
bin	nan	0
bin	nan	0
bin	nan	0
bin	nan	0
bin	nan	0
bin	nan	0
bin	nan	0
bin	nan	0
bin	nan	0
bin	nan	0
bin	nan	0
bin	nan	0
bin	nan	0
bin	nan	0
bin	nan	0
bin	nan	0
bin	nan	0
bin	nan	0
bin	nan	0
bin	nan	0
bin	nan	0
bin	nan	0
bin	nan	0
bin	nan	0
bin	nan	0
bin	nan	0
bin	nan	0
bin	nan	0
bin	nan	0
bin	nan	0
scalar SimpleRREQ.host[4].wlan[0].radio 	transmissionState:count 	25734
attr interpolationmode  sample-hold
attr source  transmissionStateChanged
attr title  "Radio transmission state, count"
scalar SimpleRREQ.host[4].wlan[0].radio 	receptionState:count 	158729
attr interpolationmode  sample-hold
attr source  receptionStateChanged
attr title  "Radio reception state, count"
scalar SimpleRREQ.host[4].wlan[0].radio 	radioMode:count 	2
attr interpolationmode  sample-hold
attr source  radioModeChanged
attr title  "Radio mode, count"
scalar SimpleRREQ.host[4].pingApp[0] 	"Pings sent" 	1196
scalar SimpleRREQ.host[4].pingApp[0] 	"ping loss rate (%)" 	100
scalar SimpleRREQ.host[4].pingApp[0] 	"ping out-of-order rate (%)" 	0
scalar SimpleRREQ.host[4].pingApp[0] 	numOutOfOrderArrivals:last 	nan
attr interpolationmode  none
attr title  "ping out-of-order arrivals, last"
scalar SimpleRREQ.host[4].pingApp[0] 	pingRxSeq:count 	0
attr interpolationmode  none
attr title  "ping rx seq, count"
scalar SimpleRREQ.host[4].pingApp[0] 	pingTxSeq:count 	1196
attr interpolationmode  none
attr title  "ping tx seq, count"
scalar SimpleRREQ.host[4].pingApp[0] 	numLost:last 	nan
attr interpolationmode  none
attr title  "pings lost, last"
statistic SimpleRREQ.host[4].pingApp[0] 	rtt:histogram
field count 0
field mean nan
field stddev nan
field sum 0
field sqrsum 0
field min nan
field max nan
attr interpolationmode  none
attr title  "ping round-trip time, histogram"
attr unit  s
bin	-INF	0
bin	-0.5	0
bin	-0.46666666666667	0
bin	-0.43333333333333	0
bin	-0.4	0
bin	-0.36666666666667	0
bin	-0.33333333333333	0
bin	-0.3	0
bin	-0.26666666666667	0
bin	-0.23333333333333	0
bin	-0.2	0
bin	-0.16666666666667	0
bin	-0.13333333333333	0
bin	-0.1	0
bin	-0.066666666666667	0
bin	-0.033333333333333	0
bin	0	0
bin	0.033333333333333	0
bin	0.066666666666667	0
bin	0.1	0
bin	0.13333333333333	0
bin	0.16666666666667	0
bin	0.2	0
bin	0.23333333333333	0
bin	0.26666666666667	0
bin	0.3	0
bin	0.33333333333333	0
bin	0.36666666666667	0
bin	0.4	0
bin	0.43333333333333	0
bin	0.46666666666667	0
bin	0.5	0
scalar SimpleRREQ.host[4].epf 	dataFwd:count 	632
attr interpolationmode  none
attr source  dataFwd
attr title  "Forward Data message, count"
scalar SimpleRREQ.host[4].epf 	dataDest:count 	285
attr interpolationmode  none
attr source  dataDest
attr title  "Received Data message on Destination, count"
scalar SimpleRREQ.host[4].epf 	dataRec:count 	10541
attr interpolationmode  none
attr source  dataRec
attr title  "Received Data message, count"
scalar SimpleRREQ.host[4].epf 	dataSent:count 	982
attr interpolationmode  none
attr source  dataSent
attr title  "Sent Data message, count"
scalar SimpleRREQ.host[4].epf 	destResp:count 	257
attr interpolationmode  none
attr source  destResp
attr title  "Response from destination, count"
scalar SimpleRREQ.host[4].epf 	destEnq:count 	257
attr interpolationmode  none
attr source  destEnq
attr title  "Enquire to Destination, count"
scalar SimpleRREQ.host[4].epf 	respNOkRec:count 	3665
attr interpolationmode  none
attr source  respNOkRec
attr title  "Received Not Ok Response message, count"
scalar SimpleRREQ.host[4].epf 	respNOkSent:count 	3963
attr interpolationmode  none
attr source  respNOkSent
attr title  "Sent Not Ok Response message, count"
scalar SimpleRREQ.host[4].epf 	respOkRec:count 	982
attr interpolationmode  none
attr source  respOkRec
attr title  "Received Ok Response message, count"
scalar SimpleRREQ.host[4].epf 	respOkSent:count 	1847
attr interpolationmode  none
attr source  respOkSent
attr title  "Sent Ok Response message, count"
scalar SimpleRREQ.host[4].epf 	respRec:count 	57493
attr interpolationmode  none
attr source  respRec
attr title  "Received Response message, count"
scalar SimpleRREQ.host[4].epf 	respSent:count 	0
attr interpolationmode  none
attr source  respSent
attr title  "Sent Response message, count"
scalar SimpleRREQ.host[4].epf 	enquireRec:count 	10530
attr interpolationmode  none
attr source  enquireRec
attr title  "Received Enquire message, count"
scalar SimpleRREQ.host[4].epf 	enquireSent:count 	631
attr interpolationmode  none
attr source  enquireSent
attr title  "Sent Enquire message, count"
scalar SimpleRREQ.host[4].epf 	rrep2Rec:count 	0
attr interpolationmode  none
attr source  rrep2Rec
attr title  "Received type 2 RREP, count"
scalar SimpleRREQ.host[4].epf 	rrep1Rec:count 	0
attr interpolationmode  none
attr source  rrep1Rec
attr title  "Received type 1 RREP, count"
scalar SimpleRREQ.host[4].epf 	rrepRec:count 	0
attr interpolationmode  none
attr source  rrepRec
attr title  "Received RREP, count"
scalar SimpleRREQ.host[4].epf 	rreq1Rec:count 	0
attr interpolationmode  none
attr source  rreq1Rec
attr title  "Received type 1 RREQ, count"
scalar SimpleRREQ.host[4].epf 	rreqRec:count 	0
attr interpolationmode  none
attr source  rreqRec
attr title  "Received RREQ, count"
scalar SimpleRREQ.host[4].epf 	rrepSent:count 	0
attr interpolationmode  none
attr source  rrepSent
attr title  "Sent RREP, count"
scalar SimpleRREQ.host[4].epf 	rreqSent:count 	0
attr interpolationmode  none
attr source  rreqSent
attr title  "Sent RREQ, count"
scalar SimpleRREQ.host[5].networkLayer.arp 	sentReply:count 	0
attr title  "ARP replies sent, count"
scalar SimpleRREQ.host[5].networkLayer.arp 	sentReq:count 	0
attr title  "ARP request sent, count"
scalar SimpleRREQ.host[5].networkLayer.arp 	failedARPResolution:count 	0
attr title  "ARP failed resolutions, count"
scalar SimpleRREQ.host[5].networkLayer.arp 	completedARPResolution:count 	0
attr title  "ARP completed resolutions, count"
scalar SimpleRREQ.host[5].networkLayer.arp 	initiatedARPResolution:count 	0
attr title  "ARP initiated resolutions, count"
scalar SimpleRREQ.host[5].lo0.lo 	droppedPkBitError:count 	0
attr interpolationmode  none
attr source  dropPkBitError
attr title  "packets dropped/bit error, count"
scalar SimpleRREQ.host[5].lo0.lo 	droppedPkBitError:sum(packetBytes) 	0
attr interpolationmode  none
attr source  dropPkBitError
attr title  "packets dropped/bit error, sum(packetBytes)"
scalar SimpleRREQ.host[5].lo0.lo 	rcvdPkFromHL:count 	0
attr interpolationmode  none
attr source  packetReceivedFromUpper
attr title  "packets received from higher layer, count"
scalar SimpleRREQ.host[5].lo0.lo 	rcvdPkFromHL:sum(packetBytes) 	0
attr interpolationmode  none
attr source  packetReceivedFromUpper
attr title  "packets received from higher layer, sum(packetBytes)"
scalar SimpleRREQ.host[5].lo0.lo 	passedUpPk:count 	0
attr interpolationmode  none
attr source  packetSentToUpper
attr title  "packets passed to higher layer, count"
scalar SimpleRREQ.host[5].lo0.lo 	passedUpPk:sum(packetBytes) 	0
attr interpolationmode  none
attr source  packetSentToUpper
attr title  "packets passed to higher layer, sum(packetBytes)"
scalar SimpleRREQ.host[5].wlan[0].queue 	queueLength:max 	4
attr interpolationmode  sample-hold
attr title  "queue length, max"
scalar SimpleRREQ.host[5].wlan[0].queue 	queueLength:timeavg 	0.00012001477486583
attr interpolationmode  sample-hold
attr title  "queue length, timeavg"
statistic SimpleRREQ.host[5].wlan[0].queue 	queueingTime:histogram
field count 11528
field mean 1.2492863448907e-005
field stddev 5.1208991928892e-005
field sum 0.144017729839
field sqrsum 3.2027147401462e-005
field min 0
field max 0.000767605671
attr interpolationmode  none
attr title  "queueing time, histogram"
bin	-INF	0
bin	-9.5997621e-005	0
bin	-8.31979382e-005	0
bin	-7.03982554e-005	0
bin	-5.75985726e-005	0
bin	-4.47988898e-005	0
bin	-3.1999207e-005	0
bin	-1.91995242e-005	0
bin	-6.3998414e-006	10830
bin	6.3998414e-006	0
bin	1.91995242e-005	0
bin	3.1999207e-005	0
bin	4.47988898e-005	0
bin	5.75985726e-005	0
bin	7.03982554e-005	0
bin	8.31979382e-005	0
bin	9.5997621e-005	0
bin	0.0001087973038	0
bin	0.0001215969866	0
bin	0.0001343966694	0
bin	0.0001471963522	0
bin	0.000159996035	0
bin	0.0001727957178	0
bin	0.0001855954006	651
bin	0.0001983950834	0
bin	0.0002111947662	0
bin	0.000223994449	0
bin	0.0002367941318	0
bin	0.0002495938146	0
bin	0.0002623934974	0
bin	0.0002751931802	0
bin	0.000287992863	47
scalar SimpleRREQ.host[5].wlan[0].queue 	dropPk:count 	0
attr interpolationmode  none
attr source  dropPkByQueue
attr title  "dropped packets, count"
scalar SimpleRREQ.host[5].wlan[0].queue 	dropPk:sum(packetBytes) 	0
attr interpolationmode  none
attr source  dropPkByQueue
attr title  "dropped packets, sum(packetBytes)"
scalar SimpleRREQ.host[5].wlan[0].queue 	rcvdPk:count 	11528
attr interpolationmode  none
attr title  "received packets, count"
scalar SimpleRREQ.host[5].wlan[0].queue 	rcvdPk:sum(packetBytes) 	322784
attr interpolationmode  none
attr title  "received packets, sum(packetBytes)"
scalar SimpleRREQ.host[5].wlan[0].mac 	droppedPkNotForUs:count 	0
attr interpolationmode  none
attr source  dropPkNotForUs
attr title  "packets dropped/not for us, count"
scalar SimpleRREQ.host[5].wlan[0].mac 	droppedPkNotForUs:sum(packetBytes) 	0
attr interpolationmode  none
attr source  dropPkNotForUs
attr title  "packets dropped/not for us, sum(packetBytes)"
scalar SimpleRREQ.host[5].wlan[0].mac 	rcvdPkFromHL:count 	11528
attr interpolationmode  none
attr source  packetReceivedFromUpper
attr title  "packets received from higher layer, count"
scalar SimpleRREQ.host[5].wlan[0].mac 	rcvdPkFromHL:sum(packetBytes) 	322784
attr interpolationmode  none
attr source  packetReceivedFromUpper
attr title  "packets received from higher layer, sum(packetBytes)"
scalar SimpleRREQ.host[5].wlan[0].mac 	passedUpPk:count 	79968
attr interpolationmode  none
attr source  packetSentToUpper
attr title  "packets passed to higher layer, count"
scalar SimpleRREQ.host[5].wlan[0].mac 	passedUpPk:sum(packetBytes) 	2239104
attr interpolationmode  none
attr source  packetSentToUpper
attr title  "packets passed to higher layer, sum(packetBytes)"
scalar SimpleRREQ.host[5].wlan[0].mac 	rcvdPkFromLL:count 	79968
attr interpolationmode  none
attr source  packetReceivedFromLower
attr title  "packets received from lower layer, count"
scalar SimpleRREQ.host[5].wlan[0].mac 	rcvdPkFromLL:sum(packetBytes) 	3838464
attr interpolationmode  none
attr source  packetReceivedFromLower
attr title  "packets received from lower layer, sum(packetBytes)"
scalar SimpleRREQ.host[5].wlan[0].mac 	sentDownPk:count 	11528
attr interpolationmode  none
attr source  packetSentToLower
attr title  "packets sent to lower layer, count"
scalar SimpleRREQ.host[5].wlan[0].mac 	sentDownPk:sum(packetBytes) 	553344
attr interpolationmode  none
attr source  packetSentToLower
attr title  "packets sent to lower layer, sum(packetBytes)"
statistic SimpleRREQ.host[5].wlan[0].radio 	symbolErrorRate:histogram
field count 79968
field mean 0.52823629451781
field stddev 0.49920519627833
field sum 42242
field sqrsum 42242
field min 0
field max 1
attr source  symbolErrorRate
attr title  "Symbol error rate, histogram"
bin	-INF	0
bin	-1	0
bin	0	37726
bin	1	42242
bin	2	0
statistic SimpleRREQ.host[5].wlan[0].radio 	bitErrorRate:histogram
field count 79968
field mean 0.52823629451781
field stddev 0.49920519627833
field sum 42242
field sqrsum 42242
field min 0
field max 1
attr source  bitErrorRate
attr title  "Bit error rate, histogram"
bin	-INF	0
bin	-1	0
bin	0	37726
bin	1	42242
bin	2	0
statistic SimpleRREQ.host[5].wlan[0].radio 	packetErrorRate:histogram
field count 79968
field mean 0.52823629451781
field stddev 0.49920519627833
field sum 42242
field sqrsum 42242
field min 0
field max 1
attr source  packetErrorRate
attr title  "Packet error rate, histogram"
bin	-INF	0
bin	-1	0
bin	0	37726
bin	1	42242
bin	2	0
statistic SimpleRREQ.host[5].wlan[0].radio 	minSNIR:histogram
field count 79968
field mean nan
field stddev nan
field sum nan
field sqrsum nan
field min nan
field max nan
attr source  minSNIR
attr title  "Min SNIR, histogram"
bin	-INF	79968
bin	nan	0
bin	nan	0
bin	nan	0
bin	nan	0
bin	nan	0
bin	nan	0
bin	nan	0
bin	nan	0
bin	nan	0
bin	nan	0
bin	nan	0
bin	nan	0
bin	nan	0
bin	nan	0
bin	nan	0
bin	nan	0
bin	nan	0
bin	nan	0
bin	nan	0
bin	nan	0
bin	nan	0
bin	nan	0
bin	nan	0
bin	nan	0
bin	nan	0
bin	nan	0
bin	nan	0
bin	nan	0
bin	nan	0
bin	nan	0
bin	nan	0
scalar SimpleRREQ.host[5].wlan[0].radio 	transmissionState:count 	23056
attr interpolationmode  sample-hold
attr source  transmissionStateChanged
attr title  "Radio transmission state, count"
scalar SimpleRREQ.host[5].wlan[0].radio 	receptionState:count 	159942
attr interpolationmode  sample-hold
attr source  receptionStateChanged
attr title  "Radio reception state, count"
scalar SimpleRREQ.host[5].wlan[0].radio 	radioMode:count 	2
attr interpolationmode  sample-hold
attr source  radioModeChanged
attr title  "Radio mode, count"
scalar SimpleRREQ.host[5].pingApp[0] 	"Pings sent" 	1199
scalar SimpleRREQ.host[5].pingApp[0] 	"ping loss rate (%)" 	100
scalar SimpleRREQ.host[5].pingApp[0] 	"ping out-of-order rate (%)" 	0
scalar SimpleRREQ.host[5].pingApp[0] 	numOutOfOrderArrivals:last 	nan
attr interpolationmode  none
attr title  "ping out-of-order arrivals, last"
scalar SimpleRREQ.host[5].pingApp[0] 	pingRxSeq:count 	0
attr interpolationmode  none
attr title  "ping rx seq, count"
scalar SimpleRREQ.host[5].pingApp[0] 	pingTxSeq:count 	1199
attr interpolationmode  none
attr title  "ping tx seq, count"
scalar SimpleRREQ.host[5].pingApp[0] 	numLost:last 	nan
attr interpolationmode  none
attr title  "pings lost, last"
statistic SimpleRREQ.host[5].pingApp[0] 	rtt:histogram
field count 0
field mean nan
field stddev nan
field sum 0
field sqrsum 0
field min nan
field max nan
attr interpolationmode  none
attr title  "ping round-trip time, histogram"
attr unit  s
bin	-INF	0
bin	-0.5	0
bin	-0.46666666666667	0
bin	-0.43333333333333	0
bin	-0.4	0
bin	-0.36666666666667	0
bin	-0.33333333333333	0
bin	-0.3	0
bin	-0.26666666666667	0
bin	-0.23333333333333	0
bin	-0.2	0
bin	-0.16666666666667	0
bin	-0.13333333333333	0
bin	-0.1	0
bin	-0.066666666666667	0
bin	-0.033333333333333	0
bin	0	0
bin	0.033333333333333	0
bin	0.066666666666667	0
bin	0.1	0
bin	0.13333333333333	0
bin	0.16666666666667	0
bin	0.2	0
bin	0.23333333333333	0
bin	0.26666666666667	0
bin	0.3	0
bin	0.33333333333333	0
bin	0.36666666666667	0
bin	0.4	0
bin	0.43333333333333	0
bin	0.46666666666667	0
bin	0.5	0
scalar SimpleRREQ.host[5].epf 	dataFwd:count 	160
attr interpolationmode  none
attr source  dataFwd
attr title  "Forward Data message, count"
scalar SimpleRREQ.host[5].epf 	dataDest:count 	269
attr interpolationmode  none
attr source  dataDest
attr title  "Received Data message on Destination, count"
scalar SimpleRREQ.host[5].epf 	dataRec:count 	9271
attr interpolationmode  none
attr source  dataRec
attr title  "Received Data message, count"
scalar SimpleRREQ.host[5].epf 	dataSent:count 	455
attr interpolationmode  none
attr source  dataSent
attr title  "Sent Data message, count"
scalar SimpleRREQ.host[5].epf 	destResp:count 	304
attr interpolationmode  none
attr source  destResp
attr title  "Response from destination, count"
scalar SimpleRREQ.host[5].epf 	destEnq:count 	304
attr interpolationmode  none
attr source  destEnq
attr title  "Enquire to Destination, count"
scalar SimpleRREQ.host[5].epf 	respNOkRec:count 	1799
attr interpolationmode  none
attr source  respNOkRec
attr title  "Received Not Ok Response message, count"
scalar SimpleRREQ.host[5].epf 	respNOkSent:count 	5194
attr interpolationmode  none
attr source  respNOkSent
attr title  "Sent Not Ok Response message, count"
scalar SimpleRREQ.host[5].epf 	respOkRec:count 	455
attr interpolationmode  none
attr source  respOkRec
attr title  "Received Ok Response message, count"
scalar SimpleRREQ.host[5].epf 	respOkSent:count 	1193
attr interpolationmode  none
attr source  respOkSent
attr title  "Sent Ok Response message, count"
scalar SimpleRREQ.host[5].epf 	respRec:count 	59979
attr interpolationmode  none
attr source  respRec
attr title  "Received Response message, count"
scalar SimpleRREQ.host[5].epf 	respSent:count 	0
attr interpolationmode  none
attr source  respSent
attr title  "Sent Response message, count"
scalar SimpleRREQ.host[5].epf 	enquireRec:count 	9919
attr interpolationmode  none
attr source  enquireRec
attr title  "Received Enquire message, count"
scalar SimpleRREQ.host[5].epf 	enquireSent:count 	244
attr interpolationmode  none
attr source  enquireSent
attr title  "Sent Enquire message, count"
scalar SimpleRREQ.host[5].epf 	rrep2Rec:count 	0
attr interpolationmode  none
attr source  rrep2Rec
attr title  "Received type 2 RREP, count"
scalar SimpleRREQ.host[5].epf 	rrep1Rec:count 	0
attr interpolationmode  none
attr source  rrep1Rec
attr title  "Received type 1 RREP, count"
scalar SimpleRREQ.host[5].epf 	rrepRec:count 	0
attr interpolationmode  none
attr source  rrepRec
attr title  "Received RREP, count"
scalar SimpleRREQ.host[5].epf 	rreq1Rec:count 	0
attr interpolationmode  none
attr source  rreq1Rec
attr title  "Received type 1 RREQ, count"
scalar SimpleRREQ.host[5].epf 	rreqRec:count 	0
attr interpolationmode  none
attr source  rreqRec
attr title  "Received RREQ, count"
scalar SimpleRREQ.host[5].epf 	rrepSent:count 	0
attr interpolationmode  none
attr source  rrepSent
attr title  "Sent RREP, count"
scalar SimpleRREQ.host[5].epf 	rreqSent:count 	0
attr interpolationmode  none
attr source  rreqSent
attr title  "Sent RREQ, count"
scalar SimpleRREQ.host[6].networkLayer.arp 	sentReply:count 	0
attr title  "ARP replies sent, count"
scalar SimpleRREQ.host[6].networkLayer.arp 	sentReq:count 	0
attr title  "ARP request sent, count"
scalar SimpleRREQ.host[6].networkLayer.arp 	failedARPResolution:count 	0
attr title  "ARP failed resolutions, count"
scalar SimpleRREQ.host[6].networkLayer.arp 	completedARPResolution:count 	0
attr title  "ARP completed resolutions, count"
scalar SimpleRREQ.host[6].networkLayer.arp 	initiatedARPResolution:count 	0
attr title  "ARP initiated resolutions, count"
scalar SimpleRREQ.host[6].lo0.lo 	droppedPkBitError:count 	0
attr interpolationmode  none
attr source  dropPkBitError
attr title  "packets dropped/bit error, count"
scalar SimpleRREQ.host[6].lo0.lo 	droppedPkBitError:sum(packetBytes) 	0
attr interpolationmode  none
attr source  dropPkBitError
attr title  "packets dropped/bit error, sum(packetBytes)"
scalar SimpleRREQ.host[6].lo0.lo 	rcvdPkFromHL:count 	0
attr interpolationmode  none
attr source  packetReceivedFromUpper
attr title  "packets received from higher layer, count"
scalar SimpleRREQ.host[6].lo0.lo 	rcvdPkFromHL:sum(packetBytes) 	0
attr interpolationmode  none
attr source  packetReceivedFromUpper
attr title  "packets received from higher layer, sum(packetBytes)"
scalar SimpleRREQ.host[6].lo0.lo 	passedUpPk:count 	0
attr interpolationmode  none
attr source  packetSentToUpper
attr title  "packets passed to higher layer, count"
scalar SimpleRREQ.host[6].lo0.lo 	passedUpPk:sum(packetBytes) 	0
attr interpolationmode  none
attr source  packetSentToUpper
attr title  "packets passed to higher layer, sum(packetBytes)"
scalar SimpleRREQ.host[6].wlan[0].queue 	queueLength:max 	3
attr interpolationmode  sample-hold
attr title  "queue length, max"
scalar SimpleRREQ.host[6].wlan[0].queue 	queueLength:timeavg 	0.00012994152042333
attr interpolationmode  sample-hold
attr title  "queue length, timeavg"
statistic SimpleRREQ.host[6].wlan[0].queue 	queueingTime:histogram
field count 12240
field mean 1.2739364747386e-005
field stddev 5.2026190803946e-005
field sum 0.155929824508
field sqrsum 3.5114048426793e-005
field min 0
field max 0.000575596999
attr interpolationmode  none
attr title  "queueing time, histogram"
bin	-INF	0
bin	-0.000287756112	0
bin	-0.0002493886304	0
bin	-0.0002110211488	0
bin	-0.0001726536672	0
bin	-0.0001342861856	0
bin	-9.5918704e-005	0
bin	-5.75512224e-005	0
bin	-1.91837408e-005	11494
bin	1.91837408e-005	0
bin	5.75512224e-005	0
bin	9.5918704e-005	0
bin	0.0001342861856	0
bin	0.0001726536672	683
bin	0.0002110211488	0
bin	0.0002493886304	0
bin	0.000287756112	0
bin	0.0003261235936	0
bin	0.0003644910752	59
bin	0.0004028585568	0
bin	0.0004412260384	0
bin	0.00047959352	0
bin	0.0005179610016	0
bin	0.0005563284832	4
bin	0.0005946959648	0
bin	0.0006330634464	0
bin	0.000671430928	0
bin	0.0007097984096	0
bin	0.0007481658912	0
bin	0.0007865333728	0
bin	0.0008249008544	0
bin	0.000863268336	0
scalar SimpleRREQ.host[6].wlan[0].queue 	dropPk:count 	0
attr interpolationmode  none
attr source  dropPkByQueue
attr title  "dropped packets, count"
scalar SimpleRREQ.host[6].wlan[0].queue 	dropPk:sum(packetBytes) 	0
attr interpolationmode  none
attr source  dropPkByQueue
attr title  "dropped packets, sum(packetBytes)"
scalar SimpleRREQ.host[6].wlan[0].queue 	rcvdPk:count 	12240
attr interpolationmode  none
attr title  "received packets, count"
scalar SimpleRREQ.host[6].wlan[0].queue 	rcvdPk:sum(packetBytes) 	342720
attr interpolationmode  none
attr title  "received packets, sum(packetBytes)"
scalar SimpleRREQ.host[6].wlan[0].mac 	droppedPkNotForUs:count 	0
attr interpolationmode  none
attr source  dropPkNotForUs
attr title  "packets dropped/not for us, count"
scalar SimpleRREQ.host[6].wlan[0].mac 	droppedPkNotForUs:sum(packetBytes) 	0
attr interpolationmode  none
attr source  dropPkNotForUs
attr title  "packets dropped/not for us, sum(packetBytes)"
scalar SimpleRREQ.host[6].wlan[0].mac 	rcvdPkFromHL:count 	12240
attr interpolationmode  none
attr source  packetReceivedFromUpper
attr title  "packets received from higher layer, count"
scalar SimpleRREQ.host[6].wlan[0].mac 	rcvdPkFromHL:sum(packetBytes) 	342720
attr interpolationmode  none
attr source  packetReceivedFromUpper
attr title  "packets received from higher layer, sum(packetBytes)"
[...]
attr source  packetSentToUpper
attr title  "packets passed to higher layer, count"
scalar SimpleRREQ.host[28].wlan[0].mac 	passedUpPk:sum(packetBytes) 	2422196
attr interpolationmode  none
attr source  packetSentToUpper
attr title  "packets passed to higher layer, sum(packetBytes)"
scalar SimpleRREQ.host[28].wlan[0].mac 	rcvdPkFromLL:count 	86507
attr interpolationmode  none
attr source  packetReceivedFromLower
attr title  "packets received from lower layer, count"
scalar SimpleRREQ.host[28].wlan[0].mac 	rcvdPkFromLL:sum(packetBytes) 	4152336
attr interpolationmode  none
attr source  packetReceivedFromLower
attr title  "packets received from lower layer, sum(packetBytes)"
scalar SimpleRREQ.host[28].wlan[0].mac 	sentDownPk:count 	13156
attr interpolationmode  none
attr source  packetSentToLower
attr title  "packets sent to lower layer, count"
scalar SimpleRREQ.host[28].wlan[0].mac 	sentDownPk:sum(packetBytes) 	631488
attr interpolationmode  none
attr source  packetSentToLower
attr title  "packets sent to lower layer, sum(packetBytes)"
statistic SimpleRREQ.host[28].wlan[0].radio 	symbolErrorRate:histogram
field count 86507
field mean 0.55296103205521
field stddev 0.49719009104425
field sum 47835
field sqrsum 47835
field min 0
field max 1
attr source  symbolErrorRate
attr title  "Symbol error rate, histogram"
bin	-INF	0
bin	-1	0
bin	0	38672
bin	1	47835
bin	2	0
statistic SimpleRREQ.host[28].wlan[0].radio 	bitErrorRate:histogram
field count 86507
field mean 0.55296103205521
field stddev 0.49719009104425
field sum 47835
field sqrsum 47835
field min 0
field max 1
attr source  bitErrorRate
attr title  "Bit error rate, histogram"
bin	-INF	0
bin	-1	0
bin	0	38672
bin	1	47835
bin	2	0
statistic SimpleRREQ.host[28].wlan[0].radio 	packetErrorRate:histogram
field count 86507
field mean 0.55296103205521
field stddev 0.49719009104425
field sum 47835
field sqrsum 47835
field min 0
field max 1
attr source  packetErrorRate
attr title  "Packet error rate, histogram"
bin	-INF	0
bin	-1	0
bin	0	38672
bin	1	47835
bin	2	0
statistic SimpleRREQ.host[28].wlan[0].radio 	minSNIR:histogram
field count 86507
field mean nan
field stddev nan
field sum nan
field sqrsum nan
field min nan
field max nan
attr source  minSNIR
attr title  "Min SNIR, histogram"
bin	-INF	86507
bin	nan	0
bin	nan	0
bin	nan	0
bin	nan	0
bin	nan	0
bin	nan	0
bin	nan	0
bin	nan	0
bin	nan	0
bin	nan	0
bin	nan	0
bin	nan	0
bin	nan	0
bin	nan	0
bin	nan	0
bin	nan	0
bin	nan	0
bin	nan	0
bin	nan	0
bin	nan	0
bin	nan	0
bin	nan	0
bin	nan	0
bin	nan	0
bin	nan	0
bin	nan	0
bin	nan	0
bin	nan	0
bin	nan	0
bin	nan	0
bin	nan	0
scalar SimpleRREQ.host[28].wlan[0].radio 	transmissionState:count 	26312
attr interpolationmode  sample-hold
attr source  transmissionStateChanged
attr title  "Radio transmission state, count"
scalar SimpleRREQ.host[28].wlan[0].radio 	receptionState:count 	173019
attr interpolationmode  sample-hold
attr source  receptionStateChanged
attr title  "Radio reception state, count"
scalar SimpleRREQ.host[28].wlan[0].radio 	radioMode:count 	2
attr interpolationmode  sample-hold
attr source  radioModeChanged
attr title  "Radio mode, count"
scalar SimpleRREQ.host[28].pingApp[0] 	"Pings sent" 	1199
scalar SimpleRREQ.host[28].pingApp[0] 	"ping loss rate (%)" 	100
scalar SimpleRREQ.host[28].pingApp[0] 	"ping out-of-order rate (%)" 	0
scalar SimpleRREQ.host[28].pingApp[0] 	numOutOfOrderArrivals:last 	nan
attr interpolationmode  none
attr title  "ping out-of-order arrivals, last"
scalar SimpleRREQ.host[28].pingApp[0] 	pingRxSeq:count 	0
attr interpolationmode  none
attr title  "ping rx seq, count"
scalar SimpleRREQ.host[28].pingApp[0] 	pingTxSeq:count 	1199
attr interpolationmode  none
attr title  "ping tx seq, count"
scalar SimpleRREQ.host[28].pingApp[0] 	numLost:last 	nan
attr interpolationmode  none
attr title  "pings lost, last"
statistic SimpleRREQ.host[28].pingApp[0] 	rtt:histogram
field count 0
field mean nan
field stddev nan
field sum 0
field sqrsum 0
field min nan
field max nan
attr interpolationmode  none
attr title  "ping round-trip time, histogram"
attr unit  s
bin	-INF	0
bin	-0.5	0
bin	-0.46666666666667	0
bin	-0.43333333333333	0
bin	-0.4	0
bin	-0.36666666666667	0
bin	-0.33333333333333	0
bin	-0.3	0
bin	-0.26666666666667	0
bin	-0.23333333333333	0
bin	-0.2	0
bin	-0.16666666666667	0
bin	-0.13333333333333	0
bin	-0.1	0
bin	-0.066666666666667	0
bin	-0.033333333333333	0
bin	0	0
bin	0.033333333333333	0
bin	0.066666666666667	0
bin	0.1	0
bin	0.13333333333333	0
bin	0.16666666666667	0
bin	0.2	0
bin	0.23333333333333	0
bin	0.26666666666667	0
bin	0.3	0
bin	0.33333333333333	0
bin	0.36666666666667	0
bin	0.4	0
bin	0.43333333333333	0
bin	0.46666666666667	0
bin	0.5	0
scalar SimpleRREQ.host[28].epf 	dataFwd:count 	246
attr interpolationmode  none
attr source  dataFwd
attr title  "Forward Data message, count"
scalar SimpleRREQ.host[28].epf 	dataDest:count 	378
attr interpolationmode  none
attr source  dataDest
attr title  "Received Data message on Destination, count"
scalar SimpleRREQ.host[28].epf 	dataRec:count 	11176
attr interpolationmode  none
attr source  dataRec
attr title  "Received Data message, count"
scalar SimpleRREQ.host[28].epf 	dataSent:count 	383
attr interpolationmode  none
attr source  dataSent
attr title  "Sent Data message, count"
scalar SimpleRREQ.host[28].epf 	destResp:count 	343
attr interpolationmode  none
attr source  destResp
attr title  "Response from destination, count"
scalar SimpleRREQ.host[28].epf 	destEnq:count 	343
attr interpolationmode  none
attr source  destEnq
attr title  "Enquire to Destination, count"
scalar SimpleRREQ.host[28].epf 	respNOkRec:count 	2064
attr interpolationmode  none
attr source  respNOkRec
attr title  "Received Not Ok Response message, count"
scalar SimpleRREQ.host[28].epf 	respNOkSent:count 	5166
attr interpolationmode  none
attr source  respNOkSent
attr title  "Sent Not Ok Response message, count"
scalar SimpleRREQ.host[28].epf 	respOkRec:count 	383
attr interpolationmode  none
attr source  respOkRec
attr title  "Received Ok Response message, count"
scalar SimpleRREQ.host[28].epf 	respOkSent:count 	1727
attr interpolationmode  none
attr source  respOkSent
attr title  "Sent Ok Response message, count"
scalar SimpleRREQ.host[28].epf 	respRec:count 	63030
attr interpolationmode  none
attr source  respRec
attr title  "Received Response message, count"
scalar SimpleRREQ.host[28].epf 	respSent:count 	0
attr interpolationmode  none
attr source  respSent
attr title  "Sent Response message, count"
scalar SimpleRREQ.host[28].epf 	enquireRec:count 	11342
attr interpolationmode  none
attr source  enquireRec
attr title  "Received Enquire message, count"
scalar SimpleRREQ.host[28].epf 	enquireSent:count 	388
attr interpolationmode  none
attr source  enquireSent
attr title  "Sent Enquire message, count"
scalar SimpleRREQ.host[28].epf 	rrep2Rec:count 	0
attr interpolationmode  none
attr source  rrep2Rec
attr title  "Received type 2 RREP, count"
scalar SimpleRREQ.host[28].epf 	rrep1Rec:count 	0
attr interpolationmode  none
attr source  rrep1Rec
attr title  "Received type 1 RREP, count"
scalar SimpleRREQ.host[28].epf 	rrepRec:count 	0
attr interpolationmode  none
attr source  rrepRec
attr title  "Received RREP, count"
scalar SimpleRREQ.host[28].epf 	rreq1Rec:count 	0
attr interpolationmode  none
attr source  rreq1Rec
attr title  "Received type 1 RREQ, count"
scalar SimpleRREQ.host[28].epf 	rreqRec:count 	0
attr interpolationmode  none
attr source  rreqRec
attr title  "Received RREQ, count"
scalar SimpleRREQ.host[28].epf 	rrepSent:count 	0
attr interpolationmode  none
attr source  rrepSent
attr title  "Sent RREP, count"
scalar SimpleRREQ.host[28].epf 	rreqSent:count 	0
attr interpolationmode  none
attr source  rreqSent
attr title  "Sent RREQ, count"
scalar SimpleRREQ.host[29].networkLayer.arp 	sentReply:count 	0
attr title  "ARP replies sent, count"
scalar SimpleRREQ.host[29].networkLayer.arp 	sentReq:count 	0
attr title  "ARP request sent, count"
scalar SimpleRREQ.host[29].networkLayer.arp 	failedARPResolution:count 	0
attr title  "ARP failed resolutions, count"
scalar SimpleRREQ.host[29].networkLayer.arp 	completedARPResolution:count 	0
attr title  "ARP completed resolutions, count"
scalar SimpleRREQ.host[29].networkLayer.arp 	initiatedARPResolution:count 	0
attr title  "ARP initiated resolutions, count"
scalar SimpleRREQ.host[29].lo0.lo 	droppedPkBitError:count 	0
attr interpolationmode  none
attr source  dropPkBitError
attr title  "packets dropped/bit error, count"
scalar SimpleRREQ.host[29].lo0.lo 	droppedPkBitError:sum(packetBytes) 	0
attr interpolationmode  none
attr source  dropPkBitError
attr title  "packets dropped/bit error, sum(packetBytes)"
scalar SimpleRREQ.host[29].lo0.lo 	rcvdPkFromHL:count 	0
attr interpolationmode  none
attr source  packetReceivedFromUpper
attr title  "packets received from higher layer, count"
scalar SimpleRREQ.host[29].lo0.lo 	rcvdPkFromHL:sum(packetBytes) 	0
attr interpolationmode  none
attr source  packetReceivedFromUpper
attr title  "packets received from higher layer, sum(packetBytes)"
scalar SimpleRREQ.host[29].lo0.lo 	passedUpPk:count 	0
attr interpolationmode  none
attr source  packetSentToUpper
attr title  "packets passed to higher layer, count"
scalar SimpleRREQ.host[29].lo0.lo 	passedUpPk:sum(packetBytes) 	0
attr interpolationmode  none
attr source  packetSentToUpper
attr title  "packets passed to higher layer, sum(packetBytes)"
scalar SimpleRREQ.host[29].wlan[0].queue 	queueLength:max 	3
attr interpolationmode  sample-hold
attr title  "queue length, max"
scalar SimpleRREQ.host[29].wlan[0].queue 	queueLength:timeavg 	0.000132014422285
attr interpolationmode  sample-hold
attr title  "queue length, timeavg"
statistic SimpleRREQ.host[29].wlan[0].queue 	queueingTime:histogram
field count 12326
field mean 1.2852288393802e-005
field stddev 5.1946235542952e-005
field sum 0.158417306742
field sqrsum 3.5293945258626e-005
field min 0
field max 0.000575672632
attr interpolationmode  none
attr title  "queueing time, histogram"
bin	-INF	0
bin	-0.000191914748	0
bin	-0.00016632611493333	0
bin	-0.00014073748186667	0
bin	-0.0001151488488	0
bin	-8.9560215733333e-005	0
bin	-6.3971582666667e-005	0
bin	-3.83829496e-005	0
bin	-1.2794316533333e-005	11566
bin	1.2794316533333e-005	0
bin	3.83829496e-005	0
bin	6.3971582666667e-005	0
bin	8.9560215733333e-005	0
bin	0.0001151488488	0
bin	0.00014073748186667	0
bin	0.00016632611493333	547
bin	0.000191914748	148
bin	0.00021750338106667	0
bin	0.00024309201413333	0
bin	0.0002686806472	0
bin	0.00029426928026667	0
bin	0.00031985791333333	0
bin	0.0003454465464	0
bin	0.00037103517946667	64
bin	0.00039662381253333	0
bin	0.0004222124456	0
bin	0.00044780107866667	0
bin	0.00047338971173333	0
bin	0.0004989783448	0
bin	0.00052456697786667	0
bin	0.00055015561093333	1
bin	0.000575744244	0
scalar SimpleRREQ.host[29].wlan[0].queue 	dropPk:count 	0
attr interpolationmode  none
attr source  dropPkByQueue
attr title  "dropped packets, count"
scalar SimpleRREQ.host[29].wlan[0].queue 	dropPk:sum(packetBytes) 	0
attr interpolationmode  none
attr source  dropPkByQueue
attr title  "dropped packets, sum(packetBytes)"
scalar SimpleRREQ.host[29].wlan[0].queue 	rcvdPk:count 	12326
attr interpolationmode  none
attr title  "received packets, count"
scalar SimpleRREQ.host[29].wlan[0].queue 	rcvdPk:sum(packetBytes) 	345128
attr interpolationmode  none
attr title  "received packets, sum(packetBytes)"
scalar SimpleRREQ.host[29].wlan[0].mac 	droppedPkNotForUs:count 	0
attr interpolationmode  none
attr source  dropPkNotForUs
attr title  "packets dropped/not for us, count"
scalar SimpleRREQ.host[29].wlan[0].mac 	droppedPkNotForUs:sum(packetBytes) 	0
attr interpolationmode  none
attr source  dropPkNotForUs
attr title  "packets dropped/not for us, sum(packetBytes)"
scalar SimpleRREQ.host[29].wlan[0].mac 	rcvdPkFromHL:count 	12326
attr interpolationmode  none
attr source  packetReceivedFromUpper
attr title  "packets received from higher layer, count"
scalar SimpleRREQ.host[29].wlan[0].mac 	rcvdPkFromHL:sum(packetBytes) 	345128
attr interpolationmode  none
attr source  packetReceivedFromUpper
attr title  "packets received from higher layer, sum(packetBytes)"
scalar SimpleRREQ.host[29].wlan[0].mac 	passedUpPk:count 	84962
attr interpolationmode  none
attr source  packetSentToUpper
attr title  "packets passed to higher layer, count"
scalar SimpleRREQ.host[29].wlan[0].mac 	passedUpPk:sum(packetBytes) 	2378936
attr interpolationmode  none
attr source  packetSentToUpper
attr title  "packets passed to higher layer, sum(packetBytes)"
scalar SimpleRREQ.host[29].wlan[0].mac 	rcvdPkFromLL:count 	84962
attr interpolationmode  none
attr source  packetReceivedFromLower
attr title  "packets received from lower layer, count"
scalar SimpleRREQ.host[29].wlan[0].mac 	rcvdPkFromLL:sum(packetBytes) 	4078176
attr interpolationmode  none
attr source  packetReceivedFromLower
attr title  "packets received from lower layer, sum(packetBytes)"
scalar SimpleRREQ.host[29].wlan[0].mac 	sentDownPk:count 	12326
attr interpolationmode  none
attr source  packetSentToLower
attr title  "packets sent to lower layer, count"
scalar SimpleRREQ.host[29].wlan[0].mac 	sentDownPk:sum(packetBytes) 	591648
attr interpolationmode  none
attr source  packetSentToLower
attr title  "packets sent to lower layer, sum(packetBytes)"
statistic SimpleRREQ.host[29].wlan[0].radio 	symbolErrorRate:histogram
field count 84962
field mean 0.54935147477696
field stddev 0.49756139902229
field sum 46674
field sqrsum 46674
field min 0
field max 1
attr source  symbolErrorRate
attr title  "Symbol error rate, histogram"
bin	-INF	0
bin	-1	0
bin	0	38288
bin	1	46674
bin	2	0
statistic SimpleRREQ.host[29].wlan[0].radio 	bitErrorRate:histogram
field count 84962
field mean 0.54935147477696
field stddev 0.49756139902229
field sum 46674
field sqrsum 46674
field min 0
field max 1
attr source  bitErrorRate
attr title  "Bit error rate, histogram"
bin	-INF	0
bin	-1	0
bin	0	38288
bin	1	46674
bin	2	0
statistic SimpleRREQ.host[29].wlan[0].radio 	packetErrorRate:histogram
field count 84962
field mean 0.54935147477696
field stddev 0.49756139902229
field sum 46674
field sqrsum 46674
field min 0
field max 1
attr source  packetErrorRate
attr title  "Packet error rate, histogram"
bin	-INF	0
bin	-1	0
bin	0	38288
bin	1	46674
bin	2	0
statistic SimpleRREQ.host[29].wlan[0].radio 	minSNIR:histogram
field count 84962
field mean nan
field stddev nan
field sum nan
field sqrsum nan
field min nan
field max nan
attr source  minSNIR
attr title  "Min SNIR, histogram"
bin	-INF	84962
bin	nan	0
bin	nan	0
bin	nan	0
bin	nan	0
bin	nan	0
bin	nan	0
bin	nan	0
bin	nan	0
bin	nan	0
bin	nan	0
bin	nan	0
bin	nan	0
bin	nan	0
bin	nan	0
bin	nan	0
bin	nan	0
bin	nan	0
bin	nan	0
bin	nan	0
bin	nan	0
bin	nan	0
bin	nan	0
bin	nan	0
bin	nan	0
bin	nan	0
bin	nan	0
bin	nan	0
bin	nan	0
bin	nan	0
bin	nan	0
bin	nan	0
scalar SimpleRREQ.host[29].wlan[0].radio 	transmissionState:count 	24652
attr interpolationmode  sample-hold
attr source  transmissionStateChanged
attr title  "Radio transmission state, count"
scalar SimpleRREQ.host[29].wlan[0].radio 	receptionState:count 	169929
attr interpolationmode  sample-hold
attr source  receptionStateChanged
attr title  "Radio reception state, count"
scalar SimpleRREQ.host[29].wlan[0].radio 	radioMode:count 	2
attr interpolationmode  sample-hold
attr source  radioModeChanged
attr title  "Radio mode, count"
scalar SimpleRREQ.host[29].pingApp[0] 	"Pings sent" 	1197
scalar SimpleRREQ.host[29].pingApp[0] 	"ping loss rate (%)" 	100
scalar SimpleRREQ.host[29].pingApp[0] 	"ping out-of-order rate (%)" 	0
scalar SimpleRREQ.host[29].pingApp[0] 	numOutOfOrderArrivals:last 	nan
attr interpolationmode  none
attr title  "ping out-of-order arrivals, last"
scalar SimpleRREQ.host[29].pingApp[0] 	pingRxSeq:count 	0
attr interpolationmode  none
attr title  "ping rx seq, count"
scalar SimpleRREQ.host[29].pingApp[0] 	pingTxSeq:count 	1197
attr interpolationmode  none
attr title  "ping tx seq, count"
scalar SimpleRREQ.host[29].pingApp[0] 	numLost:last 	nan
attr interpolationmode  none
attr title  "pings lost, last"
statistic SimpleRREQ.host[29].pingApp[0] 	rtt:histogram
field count 0
field mean nan
field stddev nan
field sum 0
field sqrsum 0
field min nan
field max nan
attr interpolationmode  none
attr title  "ping round-trip time, histogram"
attr unit  s
bin	-INF	0
bin	-0.5	0
bin	-0.46666666666667	0
bin	-0.43333333333333	0
bin	-0.4	0
bin	-0.36666666666667	0
bin	-0.33333333333333	0
bin	-0.3	0
bin	-0.26666666666667	0
bin	-0.23333333333333	0
bin	-0.2	0
bin	-0.16666666666667	0
bin	-0.13333333333333	0
bin	-0.1	0
bin	-0.066666666666667	0
bin	-0.033333333333333	0
bin	0	0
bin	0.033333333333333	0
bin	0.066666666666667	0
bin	0.1	0
bin	0.13333333333333	0
bin	0.16666666666667	0
bin	0.2	0
bin	0.23333333333333	0
bin	0.26666666666667	0
bin	0.3	0
bin	0.33333333333333	0
bin	0.36666666666667	0
bin	0.4	0
bin	0.43333333333333	0
bin	0.46666666666667	0
bin	0.5	0
scalar SimpleRREQ.host[29].epf 	dataFwd:count 	131
attr interpolationmode  none
attr source  dataFwd
attr title  "Forward Data message, count"
scalar SimpleRREQ.host[29].epf 	dataDest:count 	205
attr interpolationmode  none
attr source  dataDest
attr title  "Received Data message on Destination, count"
scalar SimpleRREQ.host[29].epf 	dataRec:count 	10740
attr interpolationmode  none
attr source  dataRec
attr title  "Received Data message, count"
scalar SimpleRREQ.host[29].epf 	dataSent:count 	263
attr interpolationmode  none
attr source  dataSent
attr title  "Sent Data message, count"
scalar SimpleRREQ.host[29].epf 	destResp:count 	268
attr interpolationmode  none
attr source  destResp
attr title  "Response from destination, count"
scalar SimpleRREQ.host[29].epf 	destEnq:count 	268
attr interpolationmode  none
attr source  destEnq
attr title  "Enquire to Destination, count"
scalar SimpleRREQ.host[29].epf 	respNOkRec:count 	1348
attr interpolationmode  none
attr source  respNOkRec
attr title  "Received Not Ok Response message, count"
scalar SimpleRREQ.host[29].epf 	respNOkSent:count 	5392
attr interpolationmode  none
attr source  respNOkSent
attr title  "Sent Not Ok Response message, count"
scalar SimpleRREQ.host[29].epf 	respOkRec:count 	263
attr interpolationmode  none
attr source  respOkRec
attr title  "Received Ok Response message, count"
scalar SimpleRREQ.host[29].epf 	respOkSent:count 	1210
attr interpolationmode  none
attr source  respOkSent
attr title  "Sent Ok Response message, count"
scalar SimpleRREQ.host[29].epf 	respRec:count 	62415
attr interpolationmode  none
attr source  respRec
attr title  "Received Response message, count"
scalar SimpleRREQ.host[29].epf 	respSent:count 	0
attr interpolationmode  none
attr source  respSent
attr title  "Sent Response message, count"
scalar SimpleRREQ.host[29].epf 	enquireRec:count 	10848
attr interpolationmode  none
attr source  enquireRec
attr title  "Received Enquire message, count"
scalar SimpleRREQ.host[29].epf 	enquireSent:count 	221
attr interpolationmode  none
attr source  enquireSent
attr title  "Sent Enquire message, count"
scalar SimpleRREQ.host[29].epf 	rrep2Rec:count 	0
attr interpolationmode  none
attr source  rrep2Rec
attr title  "Received type 2 RREP, count"
scalar SimpleRREQ.host[29].epf 	rrep1Rec:count 	0
attr interpolationmode  none
attr source  rrep1Rec
attr title  "Received type 1 RREP, count"
scalar SimpleRREQ.host[29].epf 	rrepRec:count 	0
attr interpolationmode  none
attr source  rrepRec
attr title  "Received RREP, count"
scalar SimpleRREQ.host[29].epf 	rreq1Rec:count 	0
attr interpolationmode  none
attr source  rreq1Rec
attr title  "Received type 1 RREQ, count"
scalar SimpleRREQ.host[29].epf 	rreqRec:count 	0
attr interpolationmode  none
attr source  rreqRec
attr title  "Received RREQ, count"
scalar SimpleRREQ.host[29].epf 	rrepSent:count 	0
attr interpolationmode  none
attr source  rrepSent
attr title  "Sent RREP, count"
scalar SimpleRREQ.host[29].epf 	rreqSent:count 	0
attr interpolationmode  none
attr source  rreqSent
attr title  "Sent RREQ, count"
